<?xml version="1.0" encoding="UTF-8"?>

<!-- generated on 2022-07-30 17:59:34 by Eclipse SUMO netconvert Version 1.13.0
<configuration xmlns:xsi="http://www.w3.org/2001/XMLSchema-instance" xsi:noNamespaceSchemaLocation="http://sumo.dlr.de/xsd/netconvertConfiguration.xsd">

    <input>
        <sumo-net-file value="munich_motorway_v3/mmv3.net.xml"/>
    </input>

    <output>
        <output-file value="munich_motorway_v3/sumo_mmv3.net.xml"/>
        <plain-output-prefix value="plainnet"/>
        <output.street-names value="true"/>
    </output>

    <processing>
        <geometry.min-radius.fix.railways value="false"/>
        <geometry.max-grade.fix value="false"/>
        <offset.disable-normalization value="true"/>
        <lefthand value="false"/>
    </processing>

    <junctions>
        <no-turnarounds value="true"/>
        <junctions.corner-detail value="5"/>
        <junctions.limit-turn-speed value="5.5"/>
        <rectangular-lane-cut value="false"/>
    </junctions>

    <pedestrian>
        <walkingareas value="false"/>
    </pedestrian>

    <report>
        <aggregate-warnings value="5"/>
    </report>

</configuration>
-->

<nodes version="1.9" xmlns:xsi="http://www.w3.org/2001/XMLSchema-instance" xsi:noNamespaceSchemaLocation="http://sumo.dlr.de/xsd/nodes_file.xsd">
    <location netOffset="-670943.33,-5316191.84" convBoundary="4011.55,3708.19,34827.83,30509.18" origBoundary="11.303108,47.973580,11.831393,48.265774" projParameter="+proj=utm +zone=32 +ellps=WGS84 +datum=WGS84 +units=m +no_defs"/>

    <node id="100871370#1-AddedOnRampNode" x="7020.65" y="18994.59" type="dead_end"/>
    <node id="1029321503" x="22436.43" y="9561.04" type="dead_end"/>
    <node id="1029344125" x="22397.97" y="10003.58" type="priority"/>
    <node id="1029614925" x="13374.51" y="26368.38" type="priority"/>
    <node id="1029614926" x="13734.57" y="26345.55" type="priority"/>
    <node id="1029615020" x="13694.36" y="26392.73" type="dead_end"/>
    <node id="1029615040" x="14052.27" y="26382.42" type="priority"/>
    <node id="1029615219" x="13713.15" y="26268.14" type="dead_end"/>
    <node id="1029615236" x="13670.28" y="26328.48" type="priority"/>
    <node id="1029615259" x="13948.55" y="26372.90" type="priority"/>
    <node id="1029615343" x="13873.07" y="26375.95" type="priority"/>
    <node id="1044876903" x="20210.59" y="28587.60" type="priority"/>
    <node id="1045289217" x="27633.01" y="6804.26" type="priority"/>
    <node id="104738806" x="8405.97" y="24460.79" type="priority"/>
    <node id="1059673147" x="23776.65" y="28363.87" type="priority"/>
    <node id="1059673172" x="23455.18" y="28503.17" type="priority"/>
    <node id="1059694866" x="24239.98" y="27710.48" type="priority"/>
    <node id="1059694872" x="24325.76" y="27941.64" type="priority"/>
    <node id="1059826936" x="24457.41" y="28441.38" type="priority"/>
    <node id="1059878661" x="23847.68" y="28203.80" type="dead_end"/>
    <node id="106370593" x="8191.35" y="24683.63" type="priority"/>
    <node id="106370595_trimmed_01" x="8151.43" y="24754.35" type="dead_end"/>
    <node id="106370595_trimmed_02" x="8164.07" y="24744.07" type="dead_end"/>
    <node id="106370656" x="8107.81" y="24762.54" type="priority"/>
    <node id="1099465448" x="11065.89" y="17185.41" type="priority"/>
    <node id="1099465454" x="12254.21" y="16814.78" type="priority"/>
    <node id="1099465477" x="12428.48" y="16834.81" type="priority"/>
    <node id="1099538454" x="8581.88" y="17576.56" type="dead_end"/>
    <node id="1099538478" x="7759.79" y="16589.85" type="priority"/>
    <node id="1099538516" x="7465.01" y="16224.05" type="priority"/>
    <node id="1099538529" x="8265.63" y="17208.41" type="priority"/>
    <node id="1099538589" x="9100.29" y="17457.13" type="priority"/>
    <node id="1099538607" x="9203.96" y="17444.61" type="priority"/>
    <node id="1099538663" x="7687.86" y="17505.37" type="priority"/>
    <node id="1099549787" x="8937.42" y="17409.29" type="priority"/>
    <node id="1099560779" x="6406.39" y="15881.80" type="priority"/>
    <node id="1099560796" x="6079.33" y="15849.59" type="priority"/>
    <node id="1099560799" x="6619.18" y="15913.55" type="priority"/>
    <node id="11586926" x="34215.36" y="19419.32" type="priority"/>
    <node id="11597149" x="28817.61" y="8243.25" type="dead_end"/>
    <node id="1165723266" x="7185.30" y="18901.21" type="priority"/>
    <node id="11666517" x="11345.63" y="16949.14" type="dead_end"/>
    <node id="12215022" x="27613.77" y="5497.99" type="priority"/>
    <node id="12215025" x="26685.72" y="7872.33" type="dead_end"/>
    <node id="1225697394" x="33194.93" y="13267.84" type="priority"/>
    <node id="1225697600" x="33074.36" y="13056.56" type="priority"/>
    <node id="1238967176" x="17638.96" y="29368.26" type="dead_end"/>
    <node id="125070679" x="32487.73" y="22759.18" type="priority"/>
    <node id="125070697" x="32888.85" y="22292.65" type="priority"/>
    <node id="125075834" x="32591.48" y="22615.75" type="priority"/>
    <node id="12589290" x="6791.09" y="15988.91" type="dead_end"/>
    <node id="12778934_trimmed_1" x="30662.36" y="10427.33" type="dead_end"/>
    <node id="12778934_trimmed_2" x="30694.50" y="10453.06" type="dead_end"/>
    <node id="12778935" x="30730.90" y="10523.86" type="priority"/>
    <node id="1281954197" x="21169.49" y="28764.64" type="priority"/>
    <node id="128958" x="9374.01" y="22309.68" type="priority"/>
    <node id="128959" x="9428.83" y="22303.57" type="dead_end"/>
    <node id="128961" x="9532.17" y="22546.72" type="priority"/>
    <node id="128963" x="9489.45" y="22556.46" type="priority"/>
    <node id="128969" x="10001.64" y="23315.64" type="priority"/>
    <node id="128970" x="10023.27" y="23419.74" type="priority"/>
    <node id="128971" x="10141.41" y="23689.12" type="priority"/>
    <node id="129001" x="10807.07" y="25722.05" type="priority"/>
    <node id="129002" x="10980.76" y="25720.02" type="priority"/>
    <node id="129006" x="11385.75" y="25760.13" type="priority"/>
    <node id="129009" x="11382.12" y="25775.86" type="priority"/>
    <node id="129022" x="13010.34" y="26384.01" type="priority"/>
    <node id="129031" x="14228.14" y="26442.14" type="priority"/>
    <node id="129055" x="16673.45" y="28063.71" type="priority"/>
    <node id="129069" x="17162.24" y="28237.28" type="priority"/>
    <node id="129071" x="17475.08" y="28314.26" type="priority"/>
    <node id="129077" x="17844.25" y="29017.00" type="priority"/>
    <node id="129082" x="17853.68" y="28947.57" type="priority"/>
    <node id="129934" x="9691.90" y="23270.03" type="priority"/>
    <node id="129935" x="9733.32" y="22906.53" type="priority"/>
    <node id="129937" x="9904.19" y="23205.23" type="priority"/>
    <node id="129950" x="9929.54" y="23085.68" type="priority"/>
    <node id="130114" x="6747.11" y="25988.81" type="priority"/>
    <node id="130116" x="7540.64" y="25288.31" type="priority"/>
    <node id="130122" x="9821.59" y="23185.23" type="priority"/>
    <node id="130124" x="9457.55" y="22426.32" type="priority"/>
    <node id="130125" x="9400.44" y="22346.94" type="priority"/>
    <node id="1329738792" x="8800.51" y="17356.33" type="priority"/>
    <node id="1358003274" x="22448.92" y="12594.86" type="dead_end"/>
    <node id="13884033" x="17825.92" y="28691.49" type="priority"/>
    <node id="1389431977" x="28418.13" y="25287.86" type="priority"/>
    <node id="1393033848" x="7168.94" y="19156.88" type="traffic_light" tl="GS_1393033848" tlType="actuated"/>
    <node id="141620509-AddedOnRampNode" x="7303.25" y="18108.21" type="dead_end"/>
    <node id="141620517#1_trimmed" x="7399.37" y="18440.52" type="dead_end"/>
    <node id="1423221462" x="29756.68" y="24939.45" type="priority"/>
    <node id="1423221465" x="28572.61" y="25238.05" type="priority"/>
    <node id="1423221486" x="29139.07" y="24707.46" type="dead_end"/>
    <node id="1423221510" x="29168.78" y="24802.95" type="dead_end"/>
    <node id="1423221521" x="29188.81" y="24866.67" type="dead_end"/>
    <node id="1423221536" x="29747.44" y="24914.77" type="priority"/>
    <node id="1423221557" x="29218.09" y="24959.67" type="dead_end"/>
    <node id="1423221561" x="29541.44" y="24952.87" type="priority"/>
    <node id="1423221569" x="29467.46" y="24973.22" type="priority"/>
    <node id="1423221587" x="29582.56" y="25010.07" type="priority"/>
    <node id="1423221588" x="29297.77" y="25017.00" type="priority"/>
    <node id="1423221592" x="29485.31" y="25037.28" type="priority"/>
    <node id="1423221608" x="29303.34" y="25084.93" type="priority"/>
    <node id="1423221612" x="29067.24" y="25077.57" type="priority"/>
    <node id="1423221638" x="28912.56" y="25117.44" type="priority"/>
    <node id="1423221645" x="29079.25" y="25143.16" type="priority"/>
    <node id="1423221646" x="29285.50" y="25173.34" type="dead_end"/>
    <node id="1423221663" x="28941.07" y="25182.05" type="priority"/>
    <node id="1423221687" x="28658.67" y="25239.79" type="priority"/>
    <node id="1423221723" x="29356.62" y="25310.05" type="dead_end"/>
    <node id="1423221730" x="29453.96" y="25411.03" type="dead_end"/>
    <node id="142790230-AddedOffRampNode" x="27045.02" y="6875.83" type="priority"/>
    <node id="14388263" x="34263.94" y="19674.24" type="priority"/>
    <node id="14388264" x="34097.10" y="19675.03" type="priority"/>
    <node id="146607" x="18437.66" y="28449.17" type="priority"/>
    <node id="146622" x="21324.56" y="28782.65" type="priority"/>
    <node id="146657" x="25702.25" y="26869.21" type="priority"/>
    <node id="146710" x="31683.96" y="23804.70" type="priority"/>
    <node id="146717" x="31872.24" y="23605.46" type="priority"/>
    <node id="146729" x="33005.22" y="22095.03" type="priority"/>
    <node id="146739" x="34073.61" y="20150.23" type="priority"/>
    <node id="146754" x="34304.52" y="19114.01" type="priority"/>
    <node id="146773" x="34077.71" y="15553.66" type="priority"/>
    <node id="146774" x="34017.57" y="15316.12" type="priority"/>
    <node id="146775" x="33887.58" y="14895.52" type="priority"/>
    <node id="146855" x="28996.44" y="8276.74" type="priority"/>
    <node id="146870" x="27760.35" y="6906.80" type="priority"/>
    <node id="146882" x="26751.90" y="6418.14" type="priority"/>
    <node id="146886" x="26077.80" y="6502.14" type="priority"/>
    <node id="146887" x="26396.52" y="6500.28" type="priority"/>
    <node id="146896" x="26168.41" y="6525.68" type="priority"/>
    <node id="146913" x="24773.63" y="6622.74" type="priority"/>
    <node id="146933" x="24052.61" y="6880.79" type="priority"/>
    <node id="146962" x="23242.64" y="7335.29" type="dead_end"/>
    <node id="147018" x="23141.23" y="7483.54" type="priority"/>
    <node id="147025" x="22413.37" y="9397.97" type="priority"/>
    <node id="147038" x="21850.34" y="13679.38" type="priority"/>
    <node id="147103_trimmed_01" x="11353.05" y="16936.34" type="dead_end"/>
    <node id="147154" x="27700.71" y="5294.37" type="priority"/>
    <node id="147159" x="28059.04" y="4582.38" type="priority"/>
    <node id="147162" x="27862.14" y="5006.70" type="priority"/>
    <node id="149800403#0-AddedOnRampNode" x="9189.81" y="22189.44" type="priority"/>
    <node id="1550170701" x="7363.32" y="18385.10" type="priority"/>
    <node id="1562597907" x="27163.64" y="6545.43" type="priority"/>
    <node id="1564111637" x="26518.61" y="6512.69" type="priority"/>
    <node id="1569939897" x="22417.98" y="9916.90" type="priority"/>
    <node id="1569939962" x="22565.49" y="11871.96" type="priority"/>
    <node id="1569959315" x="22435.85" y="9188.31" type="priority"/>
    <node id="1572493959" x="27730.51" y="5314.03" type="priority"/>
    <node id="1572998454" x="34163.86" y="16065.29" type="priority"/>
    <node id="1572998476" x="34043.80" y="15674.97" type="dead_end"/>
    <node id="1573049875" x="33925.80" y="19679.60" type="priority"/>
    <node id="1573049885" x="34144.46" y="19747.73" type="priority"/>
    <node id="1573049909" x="34087.93" y="19931.00" type="priority"/>
    <node id="1574495828" x="34145.80" y="15848.61" type="priority"/>
    <node id="1574495832" x="34324.96" y="16996.67" type="priority"/>
    <node id="1574495836" x="34355.27" y="18530.38" type="priority"/>
    <node id="1574855417" x="34345.77" y="18010.45" type="priority"/>
    <node id="1574855419" x="34314.59" y="18735.04" type="priority"/>
    <node id="1577763072" x="10616.87" y="22410.81" type="dead_end"/>
    <node id="1578755572" x="33219.06" y="19646.97" type="dead_end"/>
    <node id="1580169075" x="27134.13" y="6539.35" type="priority"/>
    <node id="1580820762" x="29929.92" y="24882.57" type="priority"/>
    <node id="1580998399" x="32313.62" y="23072.63" type="priority"/>
    <node id="1581043485" x="21253.43" y="28814.32" type="dead_end"/>
    <node id="1581188897" x="13730.03" y="26255.85" type="dead_end"/>
    <node id="1581762617" x="32791.39" y="22435.86" type="priority"/>
    <node id="1581762638" x="32715.18" y="22551.28" type="priority"/>
    <node id="1581762656" x="32429.83" y="22910.90" type="priority"/>
    <node id="1581762671" x="31831.65" y="23611.08" type="priority"/>
    <node id="1581762694" x="31835.89" y="23666.96" type="dead_end"/>
    <node id="1581762709" x="31688.96" y="23732.59" type="dead_end"/>
    <node id="1581762731" x="31729.45" y="23777.71" type="dead_end"/>
    <node id="1584370106" x="6481.95" y="26187.98" type="priority"/>
    <node id="1585011680" x="27624.20" y="5623.99" type="priority"/>
    <node id="1590077889" x="25318.42" y="27203.34" type="priority"/>
    <node id="1591263602" x="11313.67" y="25749.66" type="priority"/>
    <node id="1593504896" x="14596.30" y="16944.68" type="dead_end"/>
    <node id="1593574609" x="7613.69" y="17716.74" type="priority"/>
    <node id="1599091669" x="13000.74" y="16800.70" type="priority"/>
    <node id="1599091679" x="12981.23" y="16818.01" type="priority"/>
    <node id="1607553290" x="22194.80" y="12901.47" type="priority"/>
    <node id="1607570479" x="33937.32" y="19634.16" type="priority"/>
    <node id="1607570480" x="33531.18" y="19650.62" type="priority"/>
    <node id="1623777535" x="8162.86" y="24685.87" type="priority"/>
    <node id="1623802377" x="9970.88" y="23334.10" type="priority"/>
    <node id="1627457767" x="10318.13" y="22689.53" type="priority"/>
    <node id="1627466140" x="9837.68" y="23082.96" type="priority"/>
    <node id="1627520200" x="9324.70" y="22252.85" type="priority"/>
    <node id="1627520203" x="9329.20" y="22379.40" type="priority"/>
    <node id="1639720579" x="13553.73" y="16783.63" type="priority"/>
    <node id="16526431_trimmed_01" x="6677.31" y="16029.16" type="dead_end"/>
    <node id="1656202337" x="10188.88" y="23871.70" type="priority"/>
    <node id="1656202342" x="10092.07" y="23585.16" type="priority"/>
    <node id="1658191516" x="28270.31" y="4190.82" type="priority"/>
    <node id="1658373426" x="25953.70" y="6500.43" type="priority"/>
    <node id="1685004114" x="30558.43" y="10396.62" type="priority"/>
    <node id="1703355964" x="9854.01" y="23035.06" type="priority"/>
    <node id="17073440" x="34147.88" y="19626.18" type="priority"/>
    <node id="1716515075" x="13949.31" y="16852.10" type="priority"/>
    <node id="17252207" x="29021.64" y="8049.56" type="dead_end"/>
    <node id="1738482285" x="13473.73" y="16781.91" type="priority"/>
    <node id="178117528" x="33891.52" y="19634.85" type="priority"/>
    <node id="1794201" x="29325.08" y="25261.12" type="dead_end"/>
    <node id="1794227" x="32565.66" y="22752.23" type="priority"/>
    <node id="18033999" x="34344.64" y="17835.27" type="priority"/>
    <node id="18034001" x="34314.86" y="17179.40" type="priority"/>
    <node id="1814253631" x="31922.00" y="11514.84" type="dead_end"/>
    <node id="1814253638" x="32044.26" y="11646.72" type="dead_end"/>
    <node id="1814253673" x="32218.05" y="11865.50" type="priority"/>
    <node id="181764514" x="22207.36" y="12930.85" type="priority"/>
    <node id="181764519" x="22526.86" y="12085.90" type="priority"/>
    <node id="18277405_trimmed_1" x="31223.89" y="10992.34" type="dead_end"/>
    <node id="18277405_trimmed_2" x="31246.64" y="11003.59" type="dead_end"/>
    <node id="18277418" x="32975.46" y="22091.93" type="priority"/>
    <node id="1828305746" x="28867.84" y="8058.76" type="priority"/>
    <node id="1878021876" x="27912.99" y="4873.92" type="priority"/>
    <node id="1878021900" x="27803.41" y="5091.48" type="priority"/>
    <node id="1878022025" x="27126.77" y="6644.91" type="priority"/>
    <node id="1878022039" x="27499.92" y="6769.76" type="priority"/>
    <node id="1878022043" x="27552.45" y="6792.55" type="priority"/>
    <node id="1913949867" x="9701.87" y="23289.62" type="priority"/>
    <node id="1951579828" x="34394.07" y="17748.87" type="dead_end"/>
    <node id="1961449232" x="30363.79" y="10247.97" type="priority"/>
    <node id="1961449270" x="30908.06" y="10656.93" type="priority"/>
    <node id="1978472091" x="23678.99" y="7107.29" type="priority"/>
    <node id="197978814" x="13533.18" y="16738.97" type="dead_end"/>
    <node id="1985053226" x="22903.45" y="7765.15" type="priority"/>
    <node id="1985053302" x="22494.86" y="12126.23" type="priority"/>
    <node id="1988612426" x="31576.12" y="11230.27" type="priority"/>
    <node id="1989443541" x="23904.61" y="26526.84" type="dead_end"/>
    <node id="1999655952" x="16785.65" y="28120.53" type="priority"/>
    <node id="1999655981" x="17743.03" y="28235.11" type="priority"/>
    <node id="1999659625" x="14147.32" y="26427.90" type="priority"/>
    <node id="1999722420" x="24286.16" y="27867.81" type="priority"/>
    <node id="1999942902" x="21568.06" y="28801.06" type="priority"/>
    <node id="1999942917" x="22078.35" y="28782.75" type="priority"/>
    <node id="2004006679" x="24561.61" y="28792.65" type="priority"/>
    <node id="2004006687" x="25071.78" y="30508.25" type="dead_end"/>
    <node id="2010850227" x="34126.68" y="20040.79" type="priority"/>
    <node id="2021567520" x="24336.29" y="27834.28" type="priority"/>
    <node id="2041194" x="31168.86" y="10880.48" type="priority"/>
    <node id="2043498" x="32689.83" y="22474.41" type="priority"/>
    <node id="2049789044" x="28510.39" y="3715.75" type="dead_end"/>
    <node id="2051085567" x="29954.32" y="24847.48" type="priority"/>
    <node id="20949097" x="22042.76" y="13293.33" type="priority"/>
    <node id="20958702_trimmed_1" x="22212.30" y="12685.94" type="dead_end"/>
    <node id="20958702_trimmed_2" x="22254.80" y="12681.43" type="dead_end"/>
    <node id="21053060" x="22505.31" y="9649.25" type="dead_end"/>
    <node id="21140190" x="34225.49" y="19687.18" type="priority"/>
    <node id="2131234077" x="34330.82" y="17751.28" type="priority"/>
    <node id="21493223" x="20871.12" y="28700.13" type="priority"/>
    <node id="21493515" x="28900.92" y="8143.29" type="priority"/>
    <node id="21550593" x="33882.95" y="19673.09" type="priority"/>
    <node id="21550597" x="34312.56" y="19624.80" type="priority"/>
    <node id="2156703728" x="7177.80" y="19008.76" type="priority"/>
    <node id="2156703735" x="7155.21" y="19282.95" type="priority"/>
    <node id="2156703747" x="7364.30" y="19982.96" type="priority"/>
    <node id="2156703755" x="9071.95" y="22000.43" type="priority"/>
    <node id="2156703757" x="9116.70" y="22069.84" type="priority"/>
    <node id="2156703848" x="16600.99" y="28036.05" type="priority"/>
    <node id="2156714379" x="23405.63" y="28493.41" type="priority"/>
    <node id="21583524" x="13544.70" y="16860.87" type="priority"/>
    <node id="21600325" x="8572.10" y="17572.40" type="dead_end"/>
    <node id="21600328" x="8619.86" y="17470.30" type="priority"/>
    <node id="216326952" x="22442.38" y="12308.08" type="priority"/>
    <node id="21676279" x="24260.97" y="28262.74" type="priority"/>
    <node id="21676283" x="23949.50" y="28273.28" type="priority"/>
    <node id="21690967" x="27076.22" y="6780.83" type="priority"/>
    <node id="21690972" x="27124.63" y="6732.33" type="priority"/>
    <node id="21690978" x="27246.18" y="6591.65" type="priority"/>
    <node id="2204616517" x="34149.92" y="15254.11" type="dead_end"/>
    <node id="224348417" x="23035.54" y="28618.41" type="priority"/>
    <node id="224348461" x="23450.82" y="28439.24" type="priority"/>
    <node id="2247256772" x="26382.04" y="6523.27" type="priority"/>
    <node id="2273102323" x="32490.57" y="22425.28" type="dead_end"/>
    <node id="236801" x="7577.09" y="16352.55" type="priority"/>
    <node id="2382778" x="34306.95" y="19155.17" type="priority"/>
    <node id="2382830" x="24336.75" y="27648.48" type="priority"/>
    <node id="2383155" x="34246.41" y="19590.00" type="priority"/>
    <node id="2383195" x="24074.72" y="27099.04" type="priority"/>
    <node id="2383200" x="34285.54" y="19369.87" type="priority"/>
    <node id="241792598" x="13622.93" y="26201.35" type="dead_end"/>
    <node id="2429987872" x="9367.88" y="22298.42" type="priority"/>
    <node id="2429987884" x="9278.70" y="22319.67" type="priority"/>
    <node id="245440736-AddedOffRampNode" x="22450.42" y="9250.50" type="priority"/>
    <node id="247364973" x="27503.99" y="5700.74" type="priority"/>
    <node id="247364977" x="27476.83" y="5993.45" type="priority"/>
    <node id="247365444" x="28839.28" y="8271.73" type="dead_end"/>
    <node id="247366622" x="29001.88" y="7969.25" type="dead_end"/>
    <node id="247368059" x="26734.11" y="6499.04" type="priority"/>
    <node id="247368773" x="25500.37" y="6382.02" type="dead_end"/>
    <node id="2484948730" x="25863.26" y="6521.30" type="priority"/>
    <node id="249309576" x="34348.13" y="17271.60" type="priority"/>
    <node id="249309579" x="34371.01" y="17906.70" type="priority"/>
    <node id="2526390811" x="22473.73" y="9079.22" type="priority"/>
    <node id="25335917" x="7158.88" y="19480.56" type="priority"/>
    <node id="25335961" x="7013.99" y="19039.23" type="dead_end"/>
    <node id="25335965" x="7122.10" y="19132.16" type="priority"/>
    <node id="253387944" x="34378.89" y="17362.61" type="dead_end"/>
    <node id="2536373549" x="28757.46" y="7893.42" type="priority"/>
    <node id="2536373572" x="29096.58" y="8468.37" type="priority"/>
    <node id="2536373580" x="29110.91" y="8534.37" type="priority"/>
    <node id="2536373636" x="29395.27" y="9122.19" type="priority"/>
    <node id="2592685923" x="9913.02" y="23140.77" type="priority"/>
    <node id="2592685924" x="10040.72" y="23398.08" type="priority"/>
    <node id="2592832041" x="19975.77" y="28570.56" type="priority"/>
    <node id="2592832042" x="20679.65" y="28667.94" type="priority"/>
    <node id="2592832044" x="20940.55" y="28730.30" type="priority"/>
    <node id="2592832049" x="22085.42" y="28799.27" type="priority"/>
    <node id="2592915274" x="33220.59" y="21717.15" type="priority"/>
    <node id="2592928640" x="34279.85" y="19094.79" type="priority"/>
    <node id="2592928646" x="34226.16" y="19355.70" type="priority"/>
    <node id="2592928667" x="34066.03" y="20172.01" type="priority"/>
    <node id="2592940901" x="33536.85" y="13966.13" type="priority"/>
    <node id="2619559994" x="23442.93" y="7236.33" type="priority"/>
    <node id="2619671677" x="28494.31" y="3708.19" type="dead_end"/>
    <node id="2619671722" x="27393.83" y="6674.37" type="priority"/>
    <node id="2619671753" x="23671.65" y="7086.28" type="priority"/>
    <node id="2619671754" x="26928.30" y="7220.59" type="priority"/>
    <node id="2619671757" x="26910.44" y="7305.21" type="priority"/>
    <node id="2619671761" x="23018.45" y="7616.09" type="priority"/>
    <node id="2619671762" x="26748.87" y="7734.26" type="priority"/>
    <node id="2619847847" x="28165.69" y="4362.43" type="priority"/>
    <node id="2619974850" x="24906.20" y="6614.05" type="priority"/>
    <node id="262868" x="9301.81" y="17422.80" type="priority"/>
    <node id="262871" x="9690.58" y="17320.90" type="priority"/>
    <node id="262872" x="9368.14" y="17430.98" type="priority"/>
    <node id="262874" x="8973.76" y="17431.64" type="priority"/>
    <node id="262896" x="10922.36" y="17217.80" type="priority"/>
    <node id="264369129" x="25375.52" y="27147.44" type="priority"/>
    <node id="26458251" x="8625.40" y="17485.21" type="priority"/>
    <node id="265199" x="4131.21" y="15159.95" type="dead_end"/>
    <node id="267713" x="12450.14" y="16816.53" type="priority"/>
    <node id="267718" x="13148.70" y="16801.41" type="priority"/>
    <node id="267722" x="13387.68" y="16822.81" type="priority"/>
    <node id="267723" x="13170.78" y="16819.43" type="priority"/>
    <node id="268348877" x="27058.26" y="6972.34" type="priority"/>
    <node id="268348879" x="26968.05" y="7150.99" type="priority"/>
    <node id="268352171" x="26683.32" y="7909.14" type="dead_end"/>
    <node id="268573602" x="27018.38" y="6979.77" type="priority"/>
    <node id="269310398" x="34456.96" y="19665.07" type="priority"/>
    <node id="269310398_trimmed_01" x="34666.17" y="19663.51" type="dead_end"/>
    <node id="269395628" x="24596.33" y="6695.27" type="priority"/>
    <node id="269395636" x="24989.48" y="6574.55" type="priority"/>
    <node id="269395641" x="25204.61" y="6560.09" type="priority"/>
    <node id="269396599" x="25512.13" y="6528.66" type="priority"/>
    <node id="269396685" x="25492.05" y="6508.21" type="priority"/>
    <node id="269724796" x="11080.05" y="17147.62" type="priority"/>
    <node id="273158" x="9842.88" y="23130.89" type="priority"/>
    <node id="273159" x="10096.29" y="22895.21" type="priority"/>
    <node id="273165" x="9673.61" y="23307.45" type="priority"/>
    <node id="27457786" x="6460.90" y="15872.19" type="priority"/>
    <node id="27510276-AddedOffRampNode" x="33403.43" y="19764.54" type="dead_end"/>
    <node id="281767" x="7692.77" y="17534.19" type="priority"/>
    <node id="281774" x="7809.77" y="17253.18" type="priority"/>
    <node id="281784" x="7373.96" y="18307.45" type="priority"/>
    <node id="281788" x="7445.91" y="18090.76" type="priority"/>
    <node id="281812" x="7217.63" y="18732.26" type="priority"/>
    <node id="281822" x="7180.32" y="18803.98" type="priority"/>
    <node id="282236" x="7502.30" y="18320.65" type="dead_end"/>
    <node id="282247" x="7297.33" y="18511.40" type="priority"/>
    <node id="282261" x="7357.88" y="18319.05" type="priority"/>
    <node id="282268" x="7171.80" y="19129.10" type="priority"/>
    <node id="282665749" x="7219.18" y="19696.97" type="priority"/>
    <node id="282665755" x="7120.75" y="19286.22" type="priority"/>
    <node id="2844134478" x="9106.59" y="22078.70" type="priority"/>
    <node id="2844134480" x="9266.84" y="22197.01" type="priority"/>
    <node id="2844138875" x="9388.70" y="22444.88" type="priority"/>
    <node id="2844174965" x="9581.42" y="23392.46" type="priority"/>
    <node id="2844174966" x="9534.52" y="23436.51" type="priority"/>
    <node id="2844784993" x="9534.28" y="23416.50" type="priority"/>
    <node id="2844813416" x="8546.03" y="24331.50" type="priority"/>
    <node id="2844813417" x="8376.29" y="24510.90" type="priority"/>
    <node id="289744202" x="34317.24" y="17717.41" type="dead_end"/>
    <node id="289744207" x="34299.13" y="17326.93" type="dead_end"/>
    <node id="290146639-AddedOffRampNode" x="9303.78" y="17439.26" type="priority"/>
    <node id="290151887-AddedOffRampNode" x="12528.37" y="16830.23" type="priority"/>
    <node id="290151890-AddedOffRampNode" x="10986.87" y="17183.67" type="priority"/>
    <node id="292338035" x="7851.62" y="24996.61" type="priority"/>
    <node id="292339971" x="10075.94" y="22949.49" type="priority"/>
    <node id="292342496" x="9221.04" y="22313.83" type="dead_end"/>
    <node id="292342693" x="9245.16" y="22272.69" type="priority"/>
    <node id="292344035" x="7378.06" y="18199.83" type="dead_end"/>
    <node id="292345454" x="8452.38" y="17278.05" type="priority"/>
    <node id="292345796" x="8659.58" y="17367.44" type="priority"/>
    <node id="292346277" x="9434.35" y="17399.71" type="priority"/>
    <node id="292346534" x="9937.94" y="17198.04" type="priority"/>
    <node id="292346566" x="9932.36" y="17182.74" type="priority"/>
    <node id="292346923" x="10744.30" y="17231.69" type="priority"/>
    <node id="292347020" x="10894.03" y="17207.13" type="priority"/>
    <node id="292348144" x="13989.33" y="16837.56" type="priority"/>
    <node id="29265257-AddedOnRampNode" x="9400.56" y="17407.27" type="priority"/>
    <node id="2929927116" x="4011.55" y="15116.58" type="dead_end"/>
    <node id="2936738037" x="9604.41" y="17342.20" type="priority"/>
    <node id="2936738048" x="9181.53" y="17428.39" type="priority"/>
    <node id="293682866" x="6976.02" y="16001.34" type="priority"/>
    <node id="2936835264" x="12609.53" y="16809.61" type="priority"/>
    <node id="2936835265" x="12600.50" y="16826.92" type="priority"/>
    <node id="2936875422" x="14119.02" y="16844.45" type="priority"/>
    <node id="2936875423" x="14070.48" y="16858.78" type="priority"/>
    <node id="2936875425" x="14780.70" y="16996.71" type="dead_end"/>
    <node id="2938089549" x="21743.71" y="13918.09" type="dead_end"/>
    <node id="2939489896" x="24418.26" y="28253.34" type="priority"/>
    <node id="29399606" x="10283.36" y="22740.92" type="priority"/>
    <node id="2956950065" x="28300.80" y="4132.97" type="priority"/>
    <node id="298488780_trimmed_01" x="32687.88" y="22351.41" type="dead_end"/>
    <node id="301503292" x="34031.82" y="15813.83" type="dead_end"/>
    <node id="301760257" x="34827.83" y="19641.63" type="dead_end"/>
    <node id="301760305" x="34742.57" y="19632.98" type="dead_end"/>
    <node id="301760430" x="34521.22" y="19630.74" type="priority"/>
    <node id="301761577" x="33970.22" y="20420.84" type="priority"/>