<?xml version="1.0" encoding="UTF-8"?>

<!-- generated on 2022-07-30 17:59:34 by Eclipse SUMO netconvert Version 1.13.0
<configuration xmlns:xsi="http://www.w3.org/2001/XMLSchema-instance" xsi:noNamespaceSchemaLocation="http://sumo.dlr.de/xsd/netconvertConfiguration.xsd">

    <input>
        <sumo-net-file value="munich_motorway_v3/mmv3.net.xml"/>
    </input>

    <output>
        <output-file value="munich_motorway_v3/sumo_mmv3.net.xml"/>
        <plain-output-prefix value="plainnet"/>
        <output.street-names value="true"/>
    </output>

    <processing>
        <geometry.min-radius.fix.railways value="false"/>
        <geometry.max-grade.fix value="false"/>
        <offset.disable-normalization value="true"/>
        <lefthand value="false"/>
    </processing>

    <junctions>
        <no-turnarounds value="true"/>
        <junctions.corner-detail value="5"/>
        <junctions.limit-turn-speed value="5.5"/>
        <rectangular-lane-cut value="false"/>
    </junctions>

    <pedestrian>
        <walkingareas value="false"/>
    </pedestrian>

    <report>
        <aggregate-warnings value="5"/>
    </report>

</configuration>
-->

<edges version="1.9" xmlns:xsi="http://www.w3.org/2001/XMLSchema-instance" xsi:noNamespaceSchemaLocation="http://sumo.dlr.de/xsd/edges_file.xsd">
    <edge id="100307561" from="269395628" to="1978472091" priority="14" type="highway.motorway" numLanes="2" speed="33.33" shape="24596.33,6695.27 24490.98,6727.95 24426.98,6749.54 24364.53,6772.74 24297.28,6798.69 24222.65,6829.23 24210.40,6834.16 24146.30,6862.51 24049.63,6906.53 23931.66,6964.93 23805.94,7032.72 23678.99,7107.29" spreadType="center" allow="private emergency authority army vip passenger hov taxi bus coach delivery truck trailer motorcycle evehicle custom1 custom2">
        <lane index="0">
            <param key="origId" value="100307561 100307562 488043424 488043432 288717493"/>
        </lane>
        <lane index="1">
            <param key="origId" value="100307561 100307562 488043424 488043432 288717493"/>
        </lane>
        <param key="ref" value="A 995"/>
    </edge>
    <edge id="10035426" from="2592685923" to="128969" priority="9" type="highway.motorway_link" numLanes="1" speed="22.22" spreadType="center" allow="private emergency authority army vip passenger hov taxi bus coach delivery truck trailer motorcycle evehicle custom1 custom2">
        <lane index="0">
            <param key="origId" value="10035426"/>
        </lane>
    </edge>
    <edge id="10038010" from="146882" to="81479847" priority="9" type="highway.motorway_link" numLanes="3" speed="22.22" shape="26752.14,6416.56 26772.51,6419.71 26793.18,6423.68 26819.27,6429.79 26843.86,6436.52 26866.04,6443.31 26889.22,6451.42 26926.62,6465.15 26959.53,6478.76" spreadType="center" allow="private emergency authority army vip passenger hov taxi bus coach delivery truck trailer motorcycle evehicle custom1 custom2">
        <lane index="0">
            <param key="origId" value="10038010 10038011"/>
        </lane>
        <lane index="1">
            <param key="origId" value="10038010 10038011"/>
        </lane>
        <lane index="2">
            <param key="origId" value="10038010 10038011"/>
        </lane>
    </edge>
    <edge id="10038751" from="82444784" to="146870" priority="9" type="highway.motorway_link" numLanes="2" speed="39.44" shape="27573.98,6787.37 27666.56,6845.98 27760.35,6906.80" spreadType="center" allow="private emergency authority army vip passenger hov taxi bus coach delivery truck trailer motorcycle evehicle custom1 custom2">
        <lane index="0">
            <param key="origId" value="10038751"/>
        </lane>
        <lane index="1">
            <param key="origId" value="10038751"/>
        </lane>
    </edge>
    <edge id="100871343" from="281788" to="1099538663" priority="14" type="highway.motorway" numLanes="3" speed="39.44" shape="7444.42,18090.18 7491.66,17970.18 7625.05,17641.04 7686.40,17504.71" spreadType="center" allow="private emergency authority army vip passenger hov taxi bus coach delivery truck trailer motorcycle evehicle custom1 custom2">
        <lane index="0" acceleration="1">
            <param key="origId" value="100871343 290126830"/>
        </lane>
        <lane index="1">
            <param key="origId" value="100871343 290126830"/>
        </lane>
        <lane index="2">
            <param key="origId" value="100871343 290126830"/>
        </lane>
        <param key="ref" value="A 99"/>
    </edge>
    <edge id="100871346" from="25335965" to="281822" priority="14" type="highway.motorway" numLanes="2" speed="39.44" shape="7122.10,19132.16 7124.02,19104.63 7128.59,19054.05 7138.19,18973.91 7153.67,18905.36 7170.25,18840.24 7180.32,18803.98" spreadType="center" allow="private emergency authority army vip passenger hov taxi bus coach delivery truck trailer motorcycle evehicle custom1 custom2">
        <lane index="0">
            <param key="origId" value="100871346"/>
        </lane>
        <lane index="1">
            <param key="origId" value="100871346"/>
        </lane>
        <param key="ref" value="A 99"/>
    </edge>
    <edge id="100871348" from="281784" to="282247" priority="14" type="highway.motorway" numLanes="2" speed="39.44" shape="7373.96,18307.45 7358.38,18348.23 7333.73,18413.78 7297.33,18511.40" spreadType="center" allow="private emergency authority army vip passenger hov taxi bus coach delivery truck trailer motorcycle evehicle custom1 custom2">
        <lane index="0">
            <param key="origId" value="100871348"/>
        </lane>
        <lane index="1">
            <param key="origId" value="100871348"/>
        </lane>
        <param key="ref" value="A 99"/>
    </edge>
    <edge id="100871352" from="282261" to="281788" priority="14" type="highway.motorway" numLanes="2" speed="39.44" shape="7357.88,18319.05 7386.52,18244.72 7445.91,18090.76" spreadType="center" allow="private emergency authority army vip passenger hov taxi bus coach delivery truck trailer motorcycle evehicle custom1 custom2">
        <lane index="0">
            <param key="origId" value="100871352"/>
        </lane>
        <lane index="1">
            <param key="origId" value="100871352"/>
        </lane>
        <param key="ref" value="A 99"/>
    </edge>
    <edge id="100871358" from="281812" to="25335917" priority="14" type="highway.motorway" numLanes="2" speed="39.44" shape="7217.63,18732.26 7205.84,18767.77 7193.93,18807.11 7179.31,18857.49 7169.57,18896.67 7161.55,18931.91 7153.97,18971.35 7147.02,19015.88 7141.59,19055.28 7139.34,19080.87 7137.37,19105.38 7134.46,19157.84 7133.21,19194.03 7133.19,19234.47 7134.19,19270.87 7135.96,19303.35 7138.42,19335.91 7140.73,19359.90 7142.33,19377.85 7149.35,19426.52 7158.88,19480.56" spreadType="center" allow="private emergency authority army vip passenger hov taxi bus coach delivery truck trailer motorcycle evehicle custom1 custom2">
        <lane index="0">
            <param key="origId" value="100871358 32456944"/>
        </lane>
        <lane index="1">
            <param key="origId" value="100871358 32456944"/>
        </lane>
        <param key="ref" value="A 99"/>
    </edge>
    <edge id="100871360" from="282247" to="281812" priority="14" type="highway.motorway" numLanes="3" speed="39.44" shape="7298.83,18511.95 7219.13,18732.80" spreadType="center" allow="private emergency authority army vip passenger hov taxi bus coach delivery truck trailer motorcycle evehicle custom1 custom2">
        <lane index="0" acceleration="1">
            <param key="origId" value="100871360"/>
        </lane>
        <lane index="1">
            <param key="origId" value="100871360"/>
        </lane>
        <lane index="2">
            <param key="origId" value="100871360"/>
        </lane>
        <param key="ref" value="A 99"/>
    </edge>
    <edge id="100871363" from="281822" to="282261" priority="14" type="highway.motorway" numLanes="3" speed="39.44" shape="7178.80,18803.48 7191.95,18763.46 7257.20,18580.07 7283.99,18507.29 7326.19,18394.60 7356.39,18318.46" spreadType="center" allow="private emergency authority army vip passenger hov taxi bus coach delivery truck trailer motorcycle evehicle custom1 custom2">
        <lane index="0" acceleration="1">
            <param key="origId" value="100871363 290116526"/>
        </lane>
        <lane index="1">
            <param key="origId" value="100871363 290116526"/>
        </lane>
        <lane index="2">
            <param key="origId" value="100871363 290116526"/>
        </lane>
        <param key="ref" value="A 99"/>
    </edge>
    <edge id="100871364" from="1099538516" to="1099538478" priority="14" type="highway.motorway" numLanes="4" speed="27.78" shape="7467.02,16221.56 7508.74,16255.20 7560.40,16301.98 7595.14,16339.14 7625.78,16375.26 7667.24,16429.97 7701.47,16477.92 7762.59,16588.30" spreadType="center" allow="private emergency authority army vip passenger hov taxi bus coach delivery truck trailer motorcycle evehicle custom1 custom2">
        <lane index="0">
            <param key="origId" value="100871364"/>
        </lane>
        <lane index="1">
            <param key="origId" value="100871364"/>
        </lane>
        <lane index="2">
            <param key="origId" value="100871364"/>
        </lane>
        <lane index="3">
            <param key="origId" value="100871364"/>
        </lane>
        <param key="ref" value="A 96"/>
    </edge>
    <edge id="100871370#1" from="100871370#1-AddedOnRampNode" to="281822" priority="9" type="highway.motorway_link" numLanes="1" speed="22.22" shape="7020.65,18994.59 7031.70,18984.58 7044.10,18976.37 7062.15,18969.65 7089.85,18961.73 7109.40,18954.45 7121.27,18946.57 7130.32,18938.62 7135.59,18931.07 7142.93,18910.25 7163.15,18841.35 7175.76,18802.48" spreadType="center" allow="private emergency authority army vip passenger hov taxi bus coach delivery truck trailer motorcycle evehicle custom1 custom2">
        <lane index="0">
            <param key="origId" value="100871370 290114343 290114347"/>
        </lane>
    </edge>
    <edge id="100871371" from="1099538663" to="281774" priority="14" type="highway.motorway" numLanes="4" speed="39.44" shape="7687.86,17505.37 7735.20,17394.01 7754.98,17350.42 7775.65,17308.93 7809.77,17253.18" spreadType="center" allow="private emergency authority army vip passenger hov taxi bus coach delivery truck trailer motorcycle evehicle custom1 custom2">
        <lane index="0">
            <param key="origId" value="100871371"/>
        </lane>
        <lane index="1">
            <param key="origId" value="100871371"/>
        </lane>
        <lane index="2">
            <param key="origId" value="100871371"/>
        </lane>
        <lane index="3">
            <param key="origId" value="100871371"/>
        </lane>
        <param key="ref" value="A 99"/>
    </edge>
    <edge id="100871373" from="292345454" to="1099549787" priority="14" type="highway.motorway" numLanes="4" speed="27.78" shape="8453.52,17275.06 8564.68,17317.37 8660.91,17347.14 8768.25,17375.33 8831.24,17388.65 8894.75,17399.79 8937.88,17406.12" spreadType="center" allow="private emergency authority army vip passenger hov taxi bus coach delivery truck trailer motorcycle evehicle custom1 custom2">
        <lane index="0" acceleration="1">
            <param key="origId" value="100871373 145571947"/>
        </lane>
        <lane index="1" acceleration="1">
            <param key="origId" value="100871373 145571947"/>
        </lane>
        <lane index="2" changeRight="authority">
            <param key="origId" value="100871373 145571947"/>
        </lane>
        <lane index="3">
            <param key="origId" value="100871373 145571947"/>
        </lane>
        <param key="ref" value="A 96"/>
    </edge>
    <edge id="1017966875" from="700070048" to="130116" priority="14" type="highway.motorway" numLanes="2" speed="39.44" shape="7814.89,25030.84 7792.02,25052.26 7786.54,25057.39 7558.78,25270.61 7540.64,25288.31" spreadType="center" allow="private emergency authority army vip passenger hov taxi bus coach delivery truck trailer motorcycle evehicle custom1 custom2">
        <lane index="0">
            <param key="origId" value="1017966875 1017966876 55706468 219404822"/>
        </lane>
        <lane index="1">
            <param key="origId" value="1017966875 1017966876 55706468 219404822"/>
        </lane>
        <param key="ref" value="A 8"/>
    </edge>
    <edge id="108490429" from="301503292" to="375781" priority="9" type="highway.motorway_link" numLanes="1" speed="22.22" shape="34031.82,15813.83 34022.37,15838.50 34016.09,15852.88 34009.05,15871.44 34006.68,15883.45 34007.56,15894.63 34009.70,15902.61 34013.32,15911.45 34017.73,15917.47 34024.19,15924.44 34031.54,15929.77 34041.36,15935.30 34046.59,15937.38 34055.79,15939.19 34064.14,15939.26 34074.86,15938.26 34084.25,15935.04 34093.60,15929.65 34101.55,15922.00 34106.82,15915.45 34112.22,15904.38 34115.37,15892.45 34121.92,15858.71" spreadType="center" allow="private emergency authority army vip passenger hov taxi bus coach delivery truck trailer motorcycle evehicle custom1 custom2">
        <lane index="0">
            <param key="origId" value="108490429"/>
        </lane>
    </edge>
    <edge id="10893338" from="130114" to="3329995329" priority="14" type="highway.motorway" numLanes="4" speed="39.44" shape="6749.15,25991.28 6624.07,26094.50" spreadType="center" allow="private emergency authority army vip passenger hov taxi bus coach delivery truck trailer motorcycle evehicle custom1 custom2">
        <lane index="0" acceleration="1">
            <param key="origId" value="10893338"/>
        </lane>
        <lane index="1" acceleration="1" changeLeft="authority">
            <param key="origId" value="10893338"/>
        </lane>
        <lane index="2" changeRight="authority">
            <param key="origId" value="10893338"/>
        </lane>
        <lane index="3">
            <param key="origId" value="10893338"/>
        </lane>
        <param key="ref" value="A 8"/>
    </edge>
    <edge id="11285555" from="482714971" to="4416311841" priority="14" type="highway.motorway" numLanes="2" speed="16.67" shape="21960.06,13476.57 21912.15,13578.02 21860.71,13684.58 21847.13,13713.53 21792.20,13832.12" spreadType="center" allow="private emergency authority army vip passenger hov taxi bus coach delivery truck trailer motorcycle evehicle custom1 custom2">
        <lane index="0">
            <param key="origId" value="11285555"/>
        </lane>
        <lane index="1">
            <param key="origId" value="11285555"/>
        </lane>
        <param key="ref" value="A 995"/>
    </edge>
    <edge id="112874029" from="2382830" to="3787575463" priority="9" type="highway.motorway_link" numLanes="1" speed="39.44" shape="24340.73,27645.80 24370.93,27684.11 24389.01,27701.52 24404.37,27713.83 24421.05,27725.13 24434.69,27733.26 24449.13,27741.04 24464.90,27748.18 24485.26,27755.52 24502.97,27760.76 24521.70,27764.60 24539.29,27766.84 24556.00,27768.11 24571.41,27768.51 24586.93,27767.95 24604.42,27766.36 24620.47,27763.72 24637.61,27760.02 24655.82,27754.65 24671.33,27749.09 24685.28,27742.94 24700.22,27735.84 24715.67,27728.24 24743.69,27709.78 24774.46,27685.40 24785.54,27677.67" spreadType="center" allow="private emergency authority army vip passenger hov taxi bus coach delivery truck trailer motorcycle evehicle custom1 custom2">
        <lane index="0">
            <param key="origId" value="112874029"/>
        </lane>
    </edge>
    <edge id="11855790" from="106370593" to="106370595_trimmed_02" priority="9" type="highway.motorway_link" numLanes="1" speed="13.89" shape="8194.63,24687.13 8180.10,24704.21 8168.92,24724.21 8165.75,24735.18 8164.07,24744.07" spreadType="center" allow="private emergency authority army vip passenger hov taxi bus coach delivery truck trailer motorcycle evehicle custom1 custom2">
        <lane index="0">
            <param key="origId" value="11855790"/>
        </lane>
    </edge>
    <edge id="121262011" from="1607553290" to="216326952" priority="14" type="highway.motorway" numLanes="2" speed="33.33" shape="22194.80,12901.47 22247.21,12789.04 22310.93,12644.67 22347.46,12560.45 22391.19,12451.02 22442.38,12308.08" spreadType="center" allow="private emergency authority army vip passenger hov taxi bus coach delivery truck trailer motorcycle evehicle custom1 custom2">
        <lane index="0">
            <param key="origId" value="121262011"/>
        </lane>
        <lane index="1">
            <param key="origId" value="121262011"/>
        </lane>
        <param key="ref" value="A 995"/>
    </edge>
    <edge id="128901031" from="1423221592" to="1423221608" priority="9" type="highway.motorway_link" numLanes="1" speed="22.22" spreadType="center" allow="private emergency authority army vip passenger hov taxi bus coach delivery truck trailer motorcycle evehicle custom1 custom2">
        <lane index="0">
            <param key="origId" value="128901031"/>
        </lane>
    </edge>
    <edge id="128901033" from="1423221465" to="8048966867" priority="9" type="highway.motorway_link" numLanes="1" speed="22.22" shape="28572.61,25238.05 28617.31,25212.26 28675.89,25188.15 28807.68,25148.78" spreadType="center" allow="private emergency authority army vip passenger hov taxi bus coach delivery truck trailer motorcycle evehicle custom1 custom2">
        <lane index="0">
            <param key="origId" value="128901033"/>
        </lane>
    </edge>
    <edge id="128901037" from="1423221723" to="1423221663" priority="9" type="highway.motorway_link" numLanes="1" speed="22.22" shape="29356.62,25310.05 29328.89,25285.30 29305.77,25270.52 29276.85,25264.94 29222.71,25263.02 29086.32,25259.63 29067.39,25254.77 29055.72,25248.19 29045.57,25238.29 29022.06,25207.54 29001.29,25193.36 28977.69,25184.53 28941.90,25185.14" spreadType="center" allow="private emergency authority army vip passenger hov taxi bus coach delivery truck trailer motorcycle evehicle custom1 custom2">
        <lane index="0">
            <param key="origId" value="128901037"/>
        </lane>
    </edge>
    <edge id="128901038" from="1423221645" to="1423221646" priority="9" type="highway.motorway_link" numLanes="1" speed="22.22" shape="29080.06,25146.25 29062.65,25154.88 29040.98,25179.87 29037.25,25204.65 29049.83,25232.08 29059.97,25241.97 29071.65,25248.55 29090.58,25253.41 29226.97,25256.80 29248.45,25253.62 29268.04,25238.87 29281.34,25218.59 29284.51,25204.10 29284.15,25188.26 29285.50,25173.34" spreadType="center" allow="private emergency authority army vip passenger hov taxi bus coach delivery truck trailer motorcycle evehicle custom1 custom2">
        <lane index="0">
            <param key="origId" value="128901038"/>
        </lane>
    </edge>
    <edge id="128901040" from="1794201" to="1423221608" priority="9" type="highway.motorway_link" numLanes="1" speed="22.22" shape="29325.08,25261.12 29342.04,25276.93 29360.29,25287.16 29377.34,25291.53 29397.43,25291.25 29413.91,25286.73 29426.10,25277.29 29437.38,25263.43 29442.32,25251.60 29444.19,25241.80 29441.86,25222.68 29434.99,25203.19 29414.74,25165.29 29409.26,25156.29 29400.53,25140.84 29383.69,25112.72 29376.49,25103.07 29366.48,25094.40 29351.13,25085.54 29330.20,25082.57 29304.15,25088.03" spreadType="center" allow="private emergency authority army vip passenger hov taxi bus coach delivery truck trailer motorcycle evehicle custom1 custom2">
        <lane index="0">
            <param key="origId" value="128901040"/>
        </lane>
    </edge>
    <edge id="128901042" from="1423221638" to="1423221510" priority="9" type="highway.motorway_link" numLanes="1" speed="22.22" shape="28911.65,25114.38 28936.19,25104.83 28943.24,25099.83 28954.19,25088.98 28968.99,25061.51 28977.68,25030.07 28982.03,25009.65 28988.29,24994.67 28995.22,24985.74 29003.80,24976.45 29016.99,24966.04 29041.81,24952.10 29084.47,24929.62 29130.05,24902.74 29143.34,24892.31 29153.99,24879.58 29162.77,24864.19 29169.16,24838.74 29168.78,24802.95" spreadType="center" allow="private emergency authority army vip passenger hov taxi bus coach delivery truck trailer motorcycle evehicle custom1 custom2">
        <lane index="0">
            <param key="origId" value="128901042"/>
        </lane>
    </edge>
    <edge id="128901043" from="1423221557" to="1423221612" priority="9" type="highway.motorway_link" numLanes="1" speed="22.22" shape="29218.09,24959.67 29198.92,24931.65 29182.17,24916.46 29171.97,24910.65 29160.13,24908.44 29144.08,24909.68 29129.20,24914.71 29091.98,24933.40 29049.28,24957.18 29024.45,24971.12 29011.26,24981.53 29002.68,24990.82 28995.75,24999.75 28989.49,25014.73 28989.46,25031.15 28994.42,25047.41 28999.87,25057.63 29009.22,25067.74 29023.09,25076.65 29038.28,25078.34 29066.42,25074.48" spreadType="center" allow="private emergency authority army vip passenger hov taxi bus coach delivery truck trailer motorcycle evehicle custom1 custom2">
        <lane index="0">
            <param key="origId" value="128901043"/>
        </lane>
    </edge>
    <edge id="128901055" from="1423221588" to="1423221521" priority="9" type="highway.motorway_link" numLanes="1" speed="22.22" shape="29296.96,25013.91 29310.61,25009.26 29318.70,25002.67 29324.04,24996.93 29328.60,24990.78 29332.63,24983.66 29335.46,24975.32 29336.75,24965.89 29337.21,24958.55 29337.03,24952.38 29336.10,24944.83 29334.59,24937.92 29310.70,24839.79 29307.99,24830.80 29303.47,24818.69 29299.33,24809.49 29295.26,24803.28 29290.66,24797.20 29284.50,24791.46 29276.25,24785.28 29267.70,24781.03 29259.26,24778.58 29250.57,24777.43 29241.16,24777.48 29232.75,24778.90 29224.43,24782.08 29216.02,24786.57 29208.38,24792.27 29202.54,24798.44 29196.79,24806.18 29193.11,24814.02 29190.62,24823.19 29189.10,24834.48 29188.81,24866.67" spreadType="center" allow="private emergency authority army vip passenger hov taxi bus coach delivery truck trailer motorcycle evehicle custom1 custom2">
        <lane index="0">
            <param key="origId" value="128901055"/>
        </lane>
    </edge>
    <edge id="128901063" from="1423221462" to="1423221587" priority="9" type="highway.motorway_link" numLanes="1" speed="22.22" shape="29756.68,24939.45 29668.54,24981.83 29582.56,25010.07" spreadType="center" allow="private emergency authority army vip passenger hov taxi bus coach delivery truck trailer motorcycle evehicle custom1 custom2">
        <lane index="0">
            <param key="origId" value="128901063"/>
        </lane>
    </edge>
    <edge id="132904500" from="8851960" to="1573049885" priority="9" type="highway.motorway_link" numLanes="1" speed="16.67" shape="34085.03,19972.62 34106.43,19901.40 34120.64,19846.90 34134.85,19792.04 34144.46,19747.73" spreadType="center" allow="private emergency authority army vip passenger hov taxi bus coach delivery truck trailer motorcycle evehicle custom1 custom2">
        <lane index="0">
            <param key="origId" value="132904500"/>
        </lane>
    </edge>
    <edge id="133659787" from="427301" to="3323891661" priority="14" type="highway.motorway" numLanes="5" speed="39.44" shape="24549.57,28686.21 24589.99,28818.89 24594.36,28833.22" spreadType="center" allow="private emergency authority army vip passenger hov taxi bus coach delivery truck trailer motorcycle evehicle custom1 custom2">
        <lane index="0" acceleration="1">
            <param key="origId" value="133659787"/>
        </lane>
        <lane index="1" acceleration="1" changeLeft="authority">
            <param key="origId" value="133659787"/>
        </lane>
        <lane index="2" changeRight="authority">
            <param key="origId" value="133659787"/>
        </lane>
        <lane index="3">
            <param key="origId" value="133659787"/>
        </lane>
        <lane index="4">
            <param key="origId" value="133659787"/>
        </lane>
        <param key="ref" value="A 9"/>
    </edge>
    <edge id="13589671" from="125070697" to="647745655_trimmed_02" priority="9" type="highway.motorway_link" numLanes="1" speed="22.22" shape="32891.50,22294.45 32888.96,22300.26 32873.70,22323.00 32869.23,22334.92 32866.81,22350.65 32867.98,22363.76 32872.30,22379.98 32880.14,22396.76 32881.14,22398.46" spreadType="center" allow="private emergency authority army vip passenger hov taxi bus coach delivery truck trailer motorcycle evehicle custom1 custom2">
        <lane index="0">
            <param key="origId" value="13589671 19826522"/>
        </lane>
    </edge>
    <edge id="13590178" from="2043498" to="647745644" priority="9" type="highway.motorway_link" numLanes="1" speed="22.22" shape="32689.83,22474.41 32750.96,22384.60 32832.44,22275.57" spreadType="center" allow="private emergency authority army vip passenger hov taxi bus coach delivery truck trailer motorcycle evehicle custom1 custom2">
        <lane index="0">
            <param key="origId" value="13590178"/>
        </lane>
        <param key="ref" value="A 99"/>
    </edge>
    <edge id="136438751" from="247364977" to="1564111637" priority="9" type="highway.motorway_link" numLanes="2" speed="39.44" shape="27476.83,5993.45 27444.54,6047.05 27407.87,6099.25 27377.42,6135.34 27348.12,6168.86 27316.00,6200.84 27282.02,6232.49 27243.25,6263.84 27198.00,6295.25 27153.60,6323.72 27110.34,6348.72 27062.14,6372.58 27001.36,6398.44 26942.16,6419.95 26888.73,6437.40 26830.94,6453.71 26754.41,6473.20 26684.82,6487.88 26646.43,6494.97 26610.66,6500.86 26558.36,6508.18 26518.61,6512.69" spreadType="center" allow="private emergency authority army vip passenger hov taxi bus coach delivery truck trailer motorcycle evehicle custom1 custom2">
        <lane index="0">
            <param key="origId" value="136438751 133643284"/>
        </lane>
        <lane index="1">
            <param key="origId" value="136438751 133643284"/>
        </lane>
    </edge>
    <edge id="136439510" from="146887" to="247364973" priority="9" type="highway.motorway_link" numLanes="2" speed="33.33" shape="26396.52,6500.28 26459.68,6496.14 26506.72,6491.98 26578.26,6483.40 26638.84,6473.68 26707.74,6459.75 26763.84,6445.19 26820.33,6427.28 26861.28,6412.01 26903.22,6394.00 26948.14,6372.37 26986.61,6351.65 27028.48,6326.06 27068.45,6299.46 27107.34,6270.65 27126.19,6255.31 27145.27,6238.86 27164.47,6222.31 27182.92,6205.01 27219.61,6168.27 27251.53,6132.90 27282.29,6094.93 27312.86,6053.53 27343.47,6005.98 27363.76,5972.02 27381.29,5940.19 27397.40,5909.42 27441.71,5818.02 27498.18,5698.06" spreadType="center" allow="private emergency authority army vip passenger hov taxi bus coach delivery truck trailer motorcycle evehicle custom1 custom2">
        <lane index="0">
            <param key="origId" value="136439510"/>
        </lane>
        <lane index="1">
            <param key="origId" value="136439510"/>
        </lane>
    </edge>
    <edge id="136439511" from="146933" to="3331894068" priority="14" type="highway.motorway" numLanes="3" speed="39.44" shape="24051.94,6879.33 24135.56,6841.19 24168.43,6827.15" spreadType="center" allow="private emergency authority army vip passenger hov taxi bus coach delivery truck trailer motorcycle evehicle custom1 custom2">
        <lane index="0" acceleration="1">
            <param key="origId" value="136439511 256297933"/>
        </lane>
        <lane index="1">
            <param key="origId" value="136439511 256297933"/>
        </lane>
        <lane index="2">
            <param key="origId" value="136439511 256297933"/>
        </lane>
        <param key="ref" value="A 995"/>
    </edge>
    <edge id="141620461" from="281767" to="1593574609" priority="14" type="highway.motorway" numLanes="4" speed="27.78" shape="7695.71,17535.46 7616.63,17718.01" spreadType="center" allow="private emergency authority army vip passenger hov taxi bus coach delivery truck trailer motorcycle evehicle custom1 custom2">
        <lane index="0" acceleration="1">
            <param key="origId" value="141620461"/>
        </lane>
        <lane index="1" acceleration="1">
            <param key="origId" value="141620461"/>
        </lane>
        <lane index="2" changeRight="authority">
            <param key="origId" value="141620461"/>
        </lane>
        <lane index="3">
            <param key="origId" value="141620461"/>
        </lane>
        <param key="ref" value="A 99"/>
    </edge>
    <edge id="141620495" from="281784" to="1550170701" priority="9" type="highway.motorway_link" numLanes="2" speed="22.22" shape="7378.41,18309.26 7371.83,18323.28 7363.97,18361.66 7362.50,18372.85 7363.32,18385.10" spreadType="center" allow="private emergency authority army vip passenger hov taxi bus coach delivery truck trailer motorcycle evehicle custom1 custom2">
        <lane index="0" changeLeft="authority">
            <param key="origId" value="141620495"/>
        </lane>
        <lane index="1">
            <param key="origId" value="141620495"/>
        </lane>
    </edge>
    <edge id="141620509" from="141620509-AddedOnRampNode" to="281788" priority="9" type="highway.motorway_link" numLanes="1" speed="39.44" shape="7303.25,18108.21 7309.30,18110.83 7318.20,18116.97 7325.97,18124.67 7344.50,18148.96 7352.45,18156.72 7361.84,18161.65 7371.16,18164.47 7379.82,18164.74 7386.53,18163.33 7397.28,18158.74 7409.99,18148.34 7425.16,18121.38 7441.45,18089.00" spreadType="center" allow="private emergency authority army vip passenger hov taxi bus coach delivery truck trailer motorcycle evehicle custom1 custom2">
        <lane index="0">
            <param key="origId" value="141620509"/>
        </lane>
    </edge>