<?xml version="1.0" encoding="UTF-8"?>

<!-- generated on 2022-07-30 17:59:34 by Eclipse SUMO netconvert Version 1.13.0
<configuration xmlns:xsi="http://www.w3.org/2001/XMLSchema-instance" xsi:noNamespaceSchemaLocation="http://sumo.dlr.de/xsd/netconvertConfiguration.xsd">

    <input>
        <sumo-net-file value="munich_motorway_v3/mmv3.net.xml"/>
    </input>

    <output>
        <output-file value="munich_motorway_v3/sumo_mmv3.net.xml"/>
        <plain-output-prefix value="plainnet"/>
        <output.street-names value="true"/>
    </output>

    <processing>
        <geometry.min-radius.fix.railways value="false"/>
        <geometry.max-grade.fix value="false"/>
        <offset.disable-normalization value="true"/>
        <lefthand value="false"/>
    </processing>

    <junctions>
        <no-turnarounds value="true"/>
        <junctions.corner-detail value="5"/>
        <junctions.limit-turn-speed value="5.5"/>
        <rectangular-lane-cut value="false"/>
    </junctions>

    <pedestrian>
        <walkingareas value="false"/>
    </pedestrian>

    <report>
        <aggregate-warnings value="5"/>
    </report>

</configuration>
-->

<connections version="1.9" xmlns:xsi="http://www.w3.org/2001/XMLSchema-instance" xsi:noNamespaceSchemaLocation="http://sumo.dlr.de/xsd/connections_file.xsd">
    <connection from="100307561" to="256297926" fromLane="0" toLane="0"/>
    <connection from="100307561" to="256297926" fromLane="0" toLane="1"/>
    <connection from="100307561" to="256297926" fromLane="1" toLane="2"/>

    <connection from="10035426" to="253331660" fromLane="0" toLane="1"/>

    <connection from="10038010" to="9934272" fromLane="0" toLane="0"/>
    <connection from="10038010" to="154929363" fromLane="1" toLane="0"/>
    <connection from="10038010" to="154929363" fromLane="2" toLane="1"/>

    <connection from="10038751" to="256297924" fromLane="0" toLane="2"/>
    <connection from="10038751" to="256297924" fromLane="1" toLane="3"/>

    <connection from="100871343" to="100871371" fromLane="0" toLane="0"/>
    <connection from="100871343" to="100871371" fromLane="0" toLane="1"/>
    <connection from="100871343" to="100871371" fromLane="1" toLane="2"/>
    <connection from="100871343" to="100871371" fromLane="2" toLane="3"/>

    <connection from="100871346" to="100871363" fromLane="0" toLane="1"/>
    <connection from="100871346" to="100871363" fromLane="1" toLane="2"/>

    <connection from="100871348" to="100871360" fromLane="0" toLane="1"/>
    <connection from="100871348" to="100871360" fromLane="1" toLane="2"/>

    <connection from="100871352" to="100871343" fromLane="0" toLane="1"/>
    <connection from="100871352" to="100871343" fromLane="1" toLane="2"/>

    <connection from="100871358" to="198358388" fromLane="0" toLane="1"/>
    <connection from="100871358" to="198358388" fromLane="1" toLane="2"/>

    <connection from="100871360" to="3662424" fromLane="0" toLane="0"/>
    <connection from="100871360" to="100871358" fromLane="1" toLane="0"/>
    <connection from="100871360" to="100871358" fromLane="2" toLane="1"/>

    <connection from="100871363" to="141620518" fromLane="0" toLane="0"/>
    <connection from="100871363" to="100871352" fromLane="1" toLane="0"/>
    <connection from="100871363" to="100871352" fromLane="2" toLane="1"/>

    <connection from="100871364" to="146070308" fromLane="0" toLane="0"/>
    <connection from="100871364" to="146070308" fromLane="1" toLane="1"/>
    <connection from="100871364" to="146070307" fromLane="2" toLane="0"/>
    <connection from="100871364" to="146070307" fromLane="3" toLane="1"/>

    <connection from="100871370#1" to="100871363" fromLane="0" toLane="0"/>

    <connection from="100871371" to="146070306" fromLane="0" toLane="0"/>
    <connection from="100871371" to="146070306" fromLane="1" toLane="1"/>
    <connection from="100871371" to="2384687" fromLane="2" toLane="0"/>
    <connection from="100871371" to="2384687" fromLane="3" toLane="1"/>

    <connection from="100871373" to="290146640" fromLane="1" toLane="0"/>
    <connection from="100871373" to="290146640" fromLane="2" toLane="1"/>
    <connection from="100871373" to="290146640" fromLane="3" toLane="2"/>

    <connection from="1017966875" to="219404823" fromLane="0" toLane="0"/>
    <connection from="1017966875" to="219404823" fromLane="1" toLane="1"/>

    <connection from="108490429" to="56316137" fromLane="0" toLane="0"/>
    <connection from="108490429" to="56316137" fromLane="0" toLane="1"/>

    <connection from="10893338" to="326367891" fromLane="0" toLane="0"/>
    <connection from="10893338" to="326367891" fromLane="1" toLane="1"/>
    <connection from="10893338" to="326367891" fromLane="2" toLane="2"/>
    <connection from="10893338" to="326367891" fromLane="3" toLane="3"/>

    <connection from="112874029" to="864006548" fromLane="0" toLane="0"/>

    <connection from="121262011" to="288717312" fromLane="0" toLane="1"/>
    <connection from="121262011" to="288717312" fromLane="1" toLane="2"/>

    <connection from="128901031" to="864009859" fromLane="0" toLane="1"/>

    <connection from="128901033" to="864009862" fromLane="0" toLane="0"/>
    <connection from="128901033" to="864009862" fromLane="0" toLane="1"/>

    <connection from="128901037" to="375347280" fromLane="0" toLane="0"/>

    <connection from="128901040" to="864009859" fromLane="0" toLane="0"/>

    <connection from="128901043" to="864009861" fromLane="0" toLane="0"/>

    <connection from="128901063" to="864009858" fromLane="0" toLane="0"/>
    <connection from="128901063" to="864009858" fromLane="0" toLane="1"/>

    <connection from="132904500" to="144598722" fromLane="0" toLane="1"/>

    <connection from="133659787" to="325781636" fromLane="0" toLane="0"/>
    <connection from="133659787" to="325781636" fromLane="1" toLane="1"/>
    <connection from="133659787" to="325781636" fromLane="2" toLane="2"/>
    <connection from="133659787" to="325781636" fromLane="3" toLane="3"/>
    <connection from="133659787" to="325781636" fromLane="4" toLane="4"/>

    <connection from="13590178" to="326418277" fromLane="0" toLane="1"/>

    <connection from="136438751" to="56316138" fromLane="0" toLane="2"/>
    <connection from="136438751" to="56316138" fromLane="1" toLane="3"/>

    <connection from="136439510" to="930774581" fromLane="0" toLane="0"/>
    <connection from="136439510" to="930774581" fromLane="1" toLane="1"/>

    <connection from="136439511" to="488043431" fromLane="1" toLane="0"/>
    <connection from="136439511" to="488043431" fromLane="2" toLane="1"/>

    <connection from="141620461" to="146070310" fromLane="1" toLane="0"/>
    <connection from="141620461" to="146070310" fromLane="2" toLane="1"/>
    <connection from="141620461" to="146070310" fromLane="3" toLane="2"/>

    <connection from="141620495" to="326348925" fromLane="0" toLane="0"/>
    <connection from="141620495" to="326348925" fromLane="1" toLane="1"/>

    <connection from="141620509" to="100871343" fromLane="0" toLane="0"/>

    <connection from="141620517#1.51" to="100871360" fromLane="0" toLane="0"/>

    <connection from="142790230" to="142790230-AddedOffRampEdge" fromLane="0" toLane="0"/>
    <connection from="142790230" to="142790230-AddedOffRampEdge" fromLane="0" toLane="1"/>
    <connection from="142790230" to="142790230-AddedOffRampEdge" fromLane="1" toLane="2"/>

    <connection from="142790230-AddedOffRampEdge" to="143948514" fromLane="0" toLane="0"/>
    <connection from="142790230-AddedOffRampEdge" to="142791203" fromLane="1" toLane="0"/>
    <connection from="142790230-AddedOffRampEdge" to="142791203" fromLane="2" toLane="1"/>

    <connection from="142791203" to="367086942" fromLane="0" toLane="0"/>
    <connection from="142791203" to="367086942" fromLane="1" toLane="1"/>

    <connection from="142937974" to="136439510" fromLane="0" toLane="0"/>
    <connection from="142937974" to="136439510" fromLane="1" toLane="1"/>

    <connection from="142937976" to="136438751" fromLane="0" toLane="0"/>
    <connection from="142937976" to="136438751" fromLane="1" toLane="1"/>

    <connection from="142937978" to="256333142" fromLane="1" toLane="0"/>
    <connection from="142937978" to="256333142" fromLane="2" toLane="1"/>

    <connection from="142948410" to="142948412" fromLane="0" toLane="0"/>
    <connection from="142948410" to="177359487" fromLane="1" toLane="0"/>

    <connection from="142948412" to="9934275" fromLane="0" toLane="0"/>

    <connection from="143476001" to="488043429" fromLane="0" toLane="1"/>
    <connection from="143476001" to="488043429" fromLane="1" toLane="2"/>

    <connection from="143476007" to="245440732" fromLane="0" toLane="0"/>

    <connection from="143690723" to="256297941" fromLane="0" toLane="0"/>
    <connection from="143690723" to="256297941" fromLane="0" toLane="1"/>
    <connection from="143690723" to="256297941" fromLane="1" toLane="2"/>
    <connection from="143690723" to="256297941" fromLane="2" toLane="3"/>

    <connection from="143702458" to="326467412" fromLane="1" toLane="0"/>
    <connection from="143702458" to="326467412" fromLane="2" toLane="1"/>
    <connection from="143702458" to="326467412" fromLane="3" toLane="2"/>

    <connection from="143755676" to="325882174" fromLane="0" toLane="0"/>
    <connection from="143755676" to="325882174" fromLane="1" toLane="1"/>

    <connection from="143755677" to="144598725" fromLane="0" toLane="0"/>

    <connection from="143755681" to="421617200" fromLane="0" toLane="0"/>
    <connection from="143755681" to="421617200" fromLane="1" toLane="1"/>

    <connection from="143755684" to="325882181" fromLane="0" toLane="0"/>

    <connection from="143885663" to="253357496" fromLane="0" toLane="1"/>
    <connection from="143885663" to="253357496" fromLane="1" toLane="2"/>
    <connection from="143885663" to="253357496" fromLane="2" toLane="3"/>

    <connection from="143948514" to="154928859" fromLane="0" toLane="0"/>

    <connection from="144035532" to="256297938" fromLane="1" toLane="0"/>

    <connection from="144118673" to="9934277" fromLane="0" toLane="0"/>

    <connection from="144458616" to="286339721" fromLane="0" toLane="1"/>
    <connection from="144458616" to="286339721" fromLane="1" toLane="2"/>
    <connection from="144458616" to="286339721" fromLane="2" toLane="3"/>

    <connection from="144554280" to="253354843" fromLane="0" toLane="0"/>

    <connection from="144554281" to="326418288" fromLane="0" toLane="1"/>

    <connection from="144554282" to="13589671" fromLane="0" toLane="0"/>
    <connection from="144554282" to="194474237" fromLane="1" toLane="0"/>

    <connection from="144555137" to="326391235" fromLane="1" toLane="0"/>
    <connection from="144555137" to="326391235" fromLane="2" toLane="1"/>
    <connection from="144555137" to="326391235" fromLane="3" toLane="2"/>
    <connection from="144555137" to="326391235" fromLane="4" toLane="3"/>
    <connection from="144555137" to="326391235" fromLane="5" toLane="4"/>

    <connection from="144556656" to="864726187" fromLane="1" toLane="0"/>
    <connection from="144556656" to="864726187" fromLane="2" toLane="1"/>
    <connection from="144556656" to="864726187" fromLane="3" toLane="2"/>
    <connection from="144556656" to="864726187" fromLane="4" toLane="3"/>

    <connection from="144574006" to="253346710" fromLane="0" toLane="0"/>

    <connection from="144575128" to="198362552" fromLane="0" toLane="0"/>

    <connection from="144575132" to="198359298" fromLane="0" toLane="0"/>

    <connection from="144598720" to="325882175" fromLane="0" toLane="1"/>

    <connection from="144598722" to="143755677" fromLane="0" toLane="0"/>
    <connection from="144598722" to="144598720" fromLane="1" toLane="0"/>

    <connection from="144598725" to="144598726" fromLane="1" toLane="0"/>

    <connection from="144598726" to="58149342" fromLane="0" toLane="1"/>

    <connection from="144599494" to="17147000" fromLane="0" toLane="2"/>

    <connection from="144599495" to="144599494" fromLane="1" toLane="0"/>

    <connection from="144599496" to="144599495" fromLane="0" toLane="1"/>

    <connection from="144655317" to="546312753" fromLane="1" toLane="0"/>

    <connection from="144929328" to="31911252" fromLane="0" toLane="0"/>
    <connection from="144929328" to="24828582" fromLane="1" toLane="0"/>

    <connection from="145035982" to="194472691" fromLane="0" toLane="0"/>
    <connection from="145035982" to="194472691" fromLane="1" toLane="1"/>

    <connection from="145307249" to="253346705" fromLane="0" toLane="0"/>

    <connection from="145308670" to="64942250" fromLane="0" toLane="0"/>
    <connection from="145308670" to="31910199" fromLane="1" toLane="0"/>

    <connection from="145337518" to="325781635" fromLane="0" toLane="0"/>
    <connection from="145337518" to="325781635" fromLane="0" toLane="1"/>
    <connection from="145337518" to="325781635" fromLane="1" toLane="2"/>

    <connection from="145430067" to="256320645" fromLane="0" toLane="0"/>
    <connection from="145430067" to="256320645" fromLane="1" toLane="1"/>
    <connection from="145430067" to="256320645" fromLane="2" toLane="2"/>
    <connection from="145430067" to="256320645" fromLane="3" toLane="3"/>

    <connection from="145571948" to="290146639" fromLane="0" toLane="0"/>
    <connection from="145571948" to="290146639" fromLane="0" toLane="1"/>
    <connection from="145571948" to="290146639" fromLane="1" toLane="2"/>
    <connection from="145571948" to="290146639" fromLane="2" toLane="3"/>

    <connection from="145630548" to="144556656" fromLane="0" toLane="0"/>
    <connection from="145630548" to="144556656" fromLane="1" toLane="1"/>
    <connection from="145630548" to="144556656" fromLane="2" toLane="2"/>
    <connection from="145630548" to="144556656" fromLane="3" toLane="3"/>
    <connection from="145630548" to="144556656" fromLane="4" toLane="4"/>

    <connection from="145779209" to="541607286" fromLane="0" toLane="0"/>
    <connection from="145779209" to="541607286" fromLane="1" toLane="1"/>
    <connection from="145779209" to="541607286" fromLane="2" toLane="2"/>
    <connection from="145779209" to="541607286" fromLane="3" toLane="3"/>

    <connection from="145779210#0" to="326369715" fromLane="1" toLane="0"/>
    <connection from="145779210#0" to="326369715" fromLane="2" toLane="1"/>
    <connection from="145779210#0" to="326369715" fromLane="3" toLane="2"/>

    <connection from="146070306" to="32456942" fromLane="0" toLane="0"/>
    <connection from="146070306" to="32456942" fromLane="1" toLane="1"/>

    <connection from="146070307" to="100871373" fromLane="0" toLane="2"/>
    <connection from="146070307" to="100871373" fromLane="1" toLane="3"/>

    <connection from="146070308" to="141620461" fromLane="0" toLane="0"/>
    <connection from="146070308" to="141620461" fromLane="1" toLane="1"/>

    <connection from="146070309" to="141620461" fromLane="0" toLane="2"/>
    <connection from="146070309" to="141620461" fromLane="1" toLane="3"/>

    <connection from="146070310" to="864003703" fromLane="0" toLane="0"/>
    <connection from="146070310" to="864003703" fromLane="1" toLane="1"/>
    <connection from="146070310" to="864003703" fromLane="2" toLane="2"/>

    <connection from="146074662" to="327043790" fromLane="0" toLane="0"/>
    <connection from="146074662" to="327043790" fromLane="1" toLane="1"/>

    <connection from="146238101.32" to="289441712" fromLane="0" toLane="0"/>

    <connection from="147549255" to="52143596" fromLane="0" toLane="0"/>
    <connection from="147549255" to="52143596" fromLane="1" toLane="1"/>

    <connection from="149394036" to="149803004" fromLane="0" toLane="0"/>

    <connection from="149800403#0" to="253331650" fromLane="0" toLane="0"/>

    <connection from="149800403#0-AddedOnRampEdge" to="149800403#0" fromLane="1" toLane="0"/>

    <connection from="149802998#0" to="234874705" fromLane="1" toLane="0"/>
    <connection from="149802998#0" to="234874705" fromLane="2" toLane="1"/>

    <connection from="149803000#0" to="280270147" fromLane="2" toLane="0"/>

    <connection from="149803004" to="198362552" fromLane="0" toLane="1"/>

    <connection from="152279744#0" to="318893115#0" fromLane="1" toLane="0"/>

    <connection from="152279745" to="289444430" fromLane="0" toLane="0"/>

    <connection from="152279770#0" to="318893112" fromLane="1" toLane="0"/>

    <connection from="152279771" to="289444439" fromLane="0" toLane="0"/>

    <connection from="153077009" to="143690723" fromLane="0" toLane="0"/>
    <connection from="153077009" to="143690723" fromLane="1" toLane="1"/>
    <connection from="153077009" to="143690723" fromLane="2" toLane="2"/>
    <connection from="153077009" to="29131180" fromLane="3" toLane="0"/>
    <connection from="153077009" to="29131180" fromLane="4" toLane="1"/>

    <connection from="153080102" to="325882159" fromLane="0" toLane="2"/>
    <connection from="153080102" to="325882159" fromLane="1" toLane="3"/>

    <connection from="153082872" to="326501998" fromLane="0" toLane="0"/>
    <connection from="153082872" to="326501998" fromLane="1" toLane="1"/>
    <connection from="153082872" to="326501998" fromLane="2" toLane="2"/>

    <connection from="153100076" to="46785227" fromLane="0" toLane="0"/>
    <connection from="153100076" to="46785227" fromLane="1" toLane="1"/>
    <connection from="153100076" to="142937974" fromLane="2" toLane="0"/>
    <connection from="153100076" to="142937974" fromLane="3" toLane="1"/>

    <connection from="154928859" to="256297940" fromLane="1" toLane="0"/>
    <connection from="154928859" to="256297940" fromLane="2" toLane="1"/>

    <connection from="154929363" to="154929366" fromLane="0" toLane="1"/>
    <connection from="154929363" to="154929366" fromLane="1" toLane="2"/>

    <connection from="154929366" to="10038751" fromLane="1" toLane="0"/>
    <connection from="154929366" to="10038751" fromLane="2" toLane="1"/>

    <connection from="159542591" to="318893118" fromLane="0" toLane="0"/>
    <connection from="159542591" to="318893118" fromLane="0" toLane="1"/>

    <connection from="164407410" to="164407575" fromLane="0" toLane="0"/>
    <connection from="164407410" to="164407575" fromLane="1" toLane="1"/>

    <connection from="164407411" to="193128685" fromLane="0" toLane="0"/>
    <connection from="164407411" to="193128685" fromLane="1" toLane="1"/>

    <connection from="17146990" to="3996483" fromLane="0" toLane="0"/>
    <connection from="17146990" to="5107158" fromLane="1" toLane="0"/>

    <connection from="17147000" to="27510276" fromLane="0" toLane="0"/>
    <connection from="17147000" to="78346870" fromLane="1" toLane="0"/>
    <connection from="17147000" to="78346870" fromLane="2" toLane="1"/>

    <connection from="17257022" to="256297930" fromLane="0" toLane="1"/>
    <connection from="17257022" to="256297930" fromLane="1" toLane="2"/>

    <connection from="17551649.66" to="288717312" fromLane="0" toLane="0"/>

    <connection from="17552771" to="40144606" fromLane="0" toLane="0"/>

    <connection from="177359480" to="24686937" fromLane="1" toLane="0"/>

    <connection from="177359481" to="145430067" fromLane="0" toLane="2"/>
    <connection from="177359481" to="145430067" fromLane="1" toLane="3"/>

    <connection from="177359482" to="177359480" fromLane="0" toLane="0"/>
    <connection from="177359482" to="177359480" fromLane="0" toLane="1"/>

    <connection from="177359483" to="256297913" fromLane="0" toLane="0"/>
    <connection from="177359483" to="256297913" fromLane="1" toLane="1"/>
    <connection from="177359483" to="256297913" fromLane="2" toLane="2"/>

    <connection from="177359487" to="256297920" fromLane="0" toLane="0"/>

    <connection from="189228362" to="205697739" fromLane="0" toLane="0"/>
    <connection from="189228362" to="205697739" fromLane="0" toLane="1"/>

    <connection from="193128685" to="29265257-AddedOnRampEdge" fromLane="0" toLane="0"/>
    <connection from="193128685" to="29265257-AddedOnRampEdge" fromLane="1" toLane="1"/>

    <connection from="19410154" to="25632153" fromLane="0" toLane="0"/>
    <connection from="19410154" to="256333144" fromLane="1" toLane="0"/>
    <connection from="19410154" to="256333144" fromLane="2" toLane="1"/>

    <connection from="194472688" to="292154882" fromLane="0" toLane="0"/>
    <connection from="194472688" to="292154882" fromLane="1" toLane="1"/>
    <connection from="194472688" to="292154882" fromLane="2" toLane="2"/>
    <connection from="194472688" to="292154882" fromLane="2" toLane="3"/>

    <connection from="194472690" to="253356368" fromLane="0" toLane="2"/>
    <connection from="194472690" to="253356368" fromLane="1" toLane="3"/>
    <connection from="194472690" to="253356368" fromLane="2" toLane="4"/>
    <connection from="194472690" to="253356368" fromLane="2" toLane="5"/>

    <connection from="194472691" to="256297924" fromLane="0" toLane="0"/>
    <connection from="194472691" to="256297924" fromLane="1" toLane="1"/>

    <connection from="194472692" to="143702458" fromLane="0" toLane="1"/>
    <connection from="194472692" to="143702458" fromLane="1" toLane="2"/>
    <connection from="194472692" to="143702458" fromLane="2" toLane="3"/>

    <connection from="194472693" to="253357498" fromLane="0" toLane="0"/>
    <connection from="194472693" to="253357498" fromLane="0" toLane="1"/>
    <connection from="194472693" to="253357498" fromLane="1" toLane="2"/>
    <connection from="194472693" to="253357498" fromLane="2" toLane="3"/>
    <connection from="194472693" to="253357498" fromLane="2" toLane="4"/>

    <connection from="194474236" to="58149342" fromLane="0" toLane="0"/>

    <connection from="194474237" to="326418297" fromLane="0" toLane="1"/>

    <connection from="194605224" to="3353408" fromLane="0" toLane="0"/>
    <connection from="194605224" to="3353408" fromLane="1" toLane="1"/>
    <connection from="194605224" to="4472294" fromLane="2" toLane="0"/>
    <connection from="194605224" to="4472294" fromLane="3" toLane="1"/>
    <connection from="194605224" to="4472294" fromLane="4" toLane="2"/>

    <connection from="194605227" to="929876820" fromLane="1" toLane="0"/>
    <connection from="194605227" to="929876820" fromLane="2" toLane="1"/>
    <connection from="194605227" to="929876820" fromLane="3" toLane="2"/>

    <connection from="194606310" to="253354842" fromLane="0" toLane="2"/>
    <connection from="194606310" to="253354842" fromLane="1" toLane="3"/>
    <connection from="194606310" to="253354842" fromLane="2" toLane="4"/>
    <connection from="194606310" to="253354842" fromLane="2" toLane="5"/>

    <connection from="194606311" to="253356369" fromLane="0" toLane="2"/>
    <connection from="194606311" to="253356369" fromLane="1" toLane="3"/>
    <connection from="194606311" to="253356369" fromLane="2" toLane="4"/>
    <connection from="194606311" to="253356369" fromLane="2" toLane="5"/>

    <connection from="194607696" to="3551125" fromLane="0" toLane="1"/>
    <connection from="194607696" to="3551125" fromLane="1" toLane="2"/>
    <connection from="194607696" to="3551125" fromLane="2" toLane="3"/>

    <connection from="194607697" to="56316137" fromLane="0" toLane="1"/>
    <connection from="194607697" to="56316137" fromLane="1" toLane="2"/>
    <connection from="194607697" to="56316137" fromLane="2" toLane="3"/>
    <connection from="194607697" to="56316137" fromLane="2" toLane="4"/>

    <connection from="194615580" to="246627685" fromLane="0" toLane="1"/>
    <connection from="194615580" to="246627685" fromLane="1" toLane="2"/>
    <connection from="194615580" to="246627685" fromLane="2" toLane="3"/>
    <connection from="194615580" to="246627685" fromLane="3" toLane="4"/>

    <connection from="19798104" to="326418277" fromLane="0" toLane="0"/>

    <connection from="198358388" to="280269658" fromLane="1" toLane="0"/>
    <connection from="198358388" to="280269658" fromLane="2" toLane="1"/>

    <connection from="198359298" to="144575128" fromLane="0" toLane="0"/>
    <connection from="198359298" to="198362553" fromLane="1" toLane="0"/>

    <connection from="198362552" to="4763060" fromLane="0" toLane="0"/>
    <connection from="198362552" to="280273999" fromLane="1" toLane="0"/>

    <connection from="198362553" to="280274001" fromLane="0" toLane="0"/>
    <connection from="198362553" to="280274001" fromLane="0" toLane="1"/>

    <connection from="198366313" to="280273994" fromLane="1" toLane="0"/>
    <connection from="198366313" to="280273994" fromLane="2" toLane="1"/>
    <connection from="198366313" to="280273994" fromLane="3" toLane="2"/>

    <connection from="199356093" to="142937978" fromLane="0" toLane="1"/>
    <connection from="199356093" to="142937978" fromLane="1" toLane="2"/>

    <connection from="199479280" to="198359298" fromLane="0" toLane="1"/>

    <connection from="20354074" to="40107612" fromLane="0" toLane="0"/>
    <connection from="20354074" to="40107612" fromLane="1" toLane="1"/>
    <connection from="20354074" to="40107612" fromLane="2" toLane="2"/>

    <connection from="205696726" to="32456942" fromLane="0" toLane="2"/>
    <connection from="205696726" to="32456942" fromLane="1" toLane="3"/>

    <connection from="205696727" to="205696730" fromLane="0" toLane="0"/>
    <connection from="205696727" to="205696730" fromLane="0" toLane="1"/>
    <connection from="205696727" to="205696730" fromLane="1" toLane="2"/>
    <connection from="205696727" to="205696730" fromLane="2" toLane="3"/>
    <connection from="205696727" to="205696730" fromLane="3" toLane="4"/>

    <connection from="205696728" to="253346716" fromLane="0" toLane="2"/>
    <connection from="205696728" to="253346716" fromLane="1" toLane="3"/>
    <connection from="205696728" to="253346716" fromLane="2" toLane="4"/>

    <connection from="205696729" to="326372747" fromLane="0" toLane="1"/>
    <connection from="205696729" to="326372747" fromLane="1" toLane="2"/>
    <connection from="205696729" to="326372747" fromLane="2" toLane="3"/>

    <connection from="205696730" to="3995753" fromLane="0" toLane="0"/>
    <connection from="205696730" to="3995753" fromLane="1" toLane="1"/>
    <connection from="205696730" to="205696728" fromLane="2" toLane="0"/>
    <connection from="205696730" to="205696728" fromLane="3" toLane="1"/>
    <connection from="205696730" to="205696728" fromLane="4" toLane="2"/>

    <connection from="205696733" to="4241832#0" fromLane="1" toLane="0"/>
    <connection from="205696733" to="4241832#0" fromLane="2" toLane="1"/>

    <connection from="205696734" to="205696733" fromLane="0" toLane="0"/>
    <connection from="205696734" to="205696733" fromLane="0" toLane="1"/>
    <connection from="205696734" to="205696733" fromLane="1" toLane="2"/>

    <connection from="205696736" to="198358388" fromLane="0" toLane="0"/>

    <connection from="205697739" to="205697740" fromLane="1" toLane="0"/>

    <connection from="205697740" to="286339721" fromLane="0" toLane="0"/>

    <connection from="205697741" to="989352113" fromLane="0" toLane="0"/>
    <connection from="205697741" to="989352113" fromLane="1" toLane="1"/>
    <connection from="205697741" to="205697743" fromLane="2" toLane="0"/>
    <connection from="205697741" to="205697743" fromLane="3" toLane="1"/>
    <connection from="205697741" to="205697743" fromLane="4" toLane="2"/>

    <connection from="205697742" to="205697741" fromLane="0" toLane="0"/>
    <connection from="205697742" to="205697741" fromLane="0" toLane="1"/>
    <connection from="205697742" to="205697741" fromLane="1" toLane="2"/>
    <connection from="205697742" to="205697741" fromLane="2" toLane="3"/>
    <connection from="205697742" to="205697741" fromLane="3" toLane="4"/>

    <connection from="205697743" to="205697744" fromLane="0" toLane="0"/>
    <connection from="205697743" to="205697744" fromLane="0" toLane="1"/>
    <connection from="205697743" to="205697744" fromLane="1" toLane="2"/>
    <connection from="205697743" to="205697744" fromLane="2" toLane="3"/>

    <connection from="205697744" to="989352111" fromLane="0" toLane="0"/>
    <connection from="205697744" to="989352111" fromLane="1" toLane="1"/>
    <connection from="205697744" to="361366592" fromLane="2" toLane="0"/>
    <connection from="205697744" to="361366592" fromLane="3" toLane="1"/>

    <connection from="210386343" to="253357496" fromLane="0" toLane="0"/>

    <connection from="210389050" to="246627685" fromLane="0" toLane="0"/>

    <connection from="211779379" to="56316152" fromLane="0" toLane="0"/>
    <connection from="211779379" to="56316152" fromLane="1" toLane="1"/>

    <connection from="219404823" to="10893338" fromLane="0" toLane="2"/>
    <connection from="219404823" to="10893338" fromLane="1" toLane="3"/>

    <connection from="227043214" to="326360863" fromLane="0" toLane="1"/>
    <connection from="227043214" to="326360863" fromLane="1" toLane="2"/>

    <connection from="227043218" to="326360865" fromLane="1" toLane="0"/>
    <connection from="227043218" to="326360865" fromLane="2" toLane="1"/>

    <connection from="227043239" to="2413204" fromLane="0" toLane="0"/>
    <connection from="227043239" to="253331658" fromLane="1" toLane="0"/>

    <connection from="22958443" to="153082872" fromLane="0" toLane="0"/>

    <connection from="233223712" to="253357498" fromLane="0" toLane="0"/>
    <connection from="233223712" to="253357498" fromLane="0" toLane="1"/>
    <connection from="233223712" to="253357498" fromLane="0" toLane="2"/>
    <connection from="233223712" to="253357498" fromLane="0" toLane="3"/>
    <connection from="233223712" to="253357498" fromLane="0" toLane="4"/>

    <connection from="234874705" to="4629157#0" fromLane="0" toLane="0"/>
    <connection from="234874705" to="4629157#0" fromLane="1" toLane="1"/>

    <connection from="237841427" to="864003708#0" fromLane="0" toLane="0"/>
    <connection from="237841427" to="864003708#0" fromLane="1" toLane="1"/>
