<?xml version="1.0" encoding="UTF-8"?>

<!-- generated on 2022-07-30 17:58:32 by Eclipse SUMO netedit Version 1.13.0
<configuration xmlns:xsi="http://www.w3.org/2001/XMLSchema-instance" xsi:noNamespaceSchemaLocation="http://sumo.dlr.de/xsd/netconvertConfiguration.xsd">

    <input>
        <sumo-net-file value="munich_motorway_v3/mmv3.net.xml"/>
    </input>

    <output>
        <output-file value="munich_motorway_v3/mmv3.net.xml"/>
        <output.street-names value="true"/>
    </output>

    <processing>
        <geometry.min-radius.fix.railways value="false"/>
        <geometry.max-grade.fix value="false"/>
        <offset.disable-normalization value="true"/>
        <lefthand value="false"/>
    </processing>

    <junctions>
        <no-turnarounds value="true"/>
        <junctions.corner-detail value="5"/>
        <junctions.limit-turn-speed value="5.5"/>
        <rectangular-lane-cut value="false"/>
    </junctions>

    <pedestrian>
        <walkingareas value="false"/>
    </pedestrian>

    <report>
        <aggregate-warnings value="5"/>
    </report>

</configuration>
-->

<net version="1.9" junctionCornerDetail="5" limitTurnSpeed="5.50" xmlns:xsi="http://www.w3.org/2001/XMLSchema-instance" xsi:noNamespaceSchemaLocation="http://sumo.dlr.de/xsd/net_file.xsd">

    <location netOffset="-670943.33,-5316191.84" convBoundary="4011.55,3708.19,34827.83,30509.18" origBoundary="11.303108,47.973580,11.831393,48.265774" projParameter="+proj=utm +zone=32 +ellps=WGS84 +datum=WGS84 +units=m +no_defs"/>

    <type id="highway.bridleway" priority="1" numLanes="1" speed="2.78" allow="pedestrian" oneway="1" width="2.00"/>
    <type id="highway.bus_guideway" priority="1" numLanes="1" speed="27.78" allow="bus" oneway="1"/>
    <type id="highway.cycleway" priority="1" numLanes="1" speed="8.33" allow="bicycle" oneway="0" width="1.00"/>
    <type id="highway.footway" priority="1" numLanes="1" speed="2.78" allow="pedestrian" oneway="1" width="2.00"/>
    <type id="highway.ford" priority="1" numLanes="1" speed="2.78" allow="army" oneway="0"/>
    <type id="highway.living_street" priority="2" numLanes="1" speed="2.78" disallow="tram rail_urban rail rail_electric rail_fast ship" oneway="0"/>
    <type id="highway.motorway" priority="14" numLanes="2" speed="39.44" allow="private emergency authority army vip passenger hov taxi bus coach delivery truck trailer motorcycle evehicle custom1 custom2" oneway="1"/>
    <type id="highway.motorway_link" priority="9" numLanes="1" speed="22.22" allow="private emergency authority army vip passenger hov taxi bus coach delivery truck trailer motorcycle evehicle custom1 custom2" oneway="1"/>
    <type id="highway.path" priority="1" numLanes="1" speed="2.78" allow="pedestrian bicycle" oneway="0" width="2.00"/>
    <type id="highway.pedestrian" priority="1" numLanes="1" speed="2.78" allow="pedestrian" oneway="1" width="2.00"/>
    <type id="highway.primary" priority="12" numLanes="2" speed="27.78" disallow="tram rail_urban rail rail_electric rail_fast ship" oneway="0"/>
    <type id="highway.primary_link" priority="7" numLanes="1" speed="22.22" disallow="tram rail_urban rail rail_electric rail_fast ship" oneway="0"/>
    <type id="highway.raceway" priority="15" numLanes="2" speed="83.33" allow="vip" oneway="0"/>
    <type id="highway.residential" priority="3" numLanes="1" speed="13.89" disallow="tram rail_urban rail rail_electric rail_fast ship" oneway="0"/>
    <type id="highway.secondary" priority="11" numLanes="1" speed="27.78" disallow="tram rail_urban rail rail_electric rail_fast ship" oneway="0"/>
    <type id="highway.secondary_link" priority="6" numLanes="1" speed="22.22" disallow="tram rail_urban rail rail_electric rail_fast ship" oneway="0"/>
    <type id="highway.service" priority="1" numLanes="1" speed="5.56" allow="pedestrian delivery bicycle" oneway="0"/>
    <type id="highway.stairs" priority="1" numLanes="1" speed="1.39" allow="pedestrian" oneway="1" width="2.00"/>
    <type id="highway.step" priority="1" numLanes="1" speed="1.39" allow="pedestrian" oneway="1" width="2.00"/>
    <type id="highway.steps" priority="1" numLanes="1" speed="1.39" allow="pedestrian" oneway="1" width="2.00"/>
    <type id="highway.tertiary" priority="10" numLanes="1" speed="22.22" disallow="tram rail_urban rail rail_electric rail_fast ship" oneway="0"/>
    <type id="highway.tertiary_link" priority="5" numLanes="1" speed="22.22" disallow="tram rail_urban rail rail_electric rail_fast ship" oneway="0"/>
    <type id="highway.track" priority="1" numLanes="1" speed="5.56" allow="pedestrian motorcycle moped bicycle" oneway="0"/>
    <type id="highway.trunk" priority="13" numLanes="2" speed="27.78" disallow="pedestrian bicycle tram rail_urban rail rail_electric rail_fast ship" oneway="0"/>
    <type id="highway.trunk_link" priority="8" numLanes="1" speed="22.22" disallow="pedestrian bicycle tram rail_urban rail rail_electric rail_fast ship" oneway="0"/>
    <type id="highway.unclassified" priority="4" numLanes="1" speed="13.89" disallow="tram rail_urban rail rail_electric rail_fast ship" oneway="0"/>
    <type id="highway.unsurfaced" priority="1" numLanes="1" speed="8.33" disallow="tram rail_urban rail rail_electric rail_fast ship" oneway="0"/>
    <type id="railway.highspeed" priority="21" numLanes="1" speed="69.44" allow="rail_fast" oneway="1"/>
    <type id="railway.light_rail" priority="19" numLanes="1" speed="27.78" allow="rail_urban" oneway="1"/>
    <type id="railway.preserved" priority="16" numLanes="1" speed="27.78" allow="rail" oneway="1"/>
    <type id="railway.rail" priority="20" numLanes="1" speed="44.44" allow="rail" oneway="1"/>
    <type id="railway.subway" priority="18" numLanes="1" speed="27.78" allow="rail_urban" oneway="1"/>
    <type id="railway.tram" priority="17" numLanes="1" speed="13.89" allow="tram" oneway="1"/>

    <edge id=":1029344125_0" function="internal">
        <lane id=":1029344125_0_0" index="0" allow="private emergency authority army vip passenger hov taxi bus coach delivery truck trailer motorcycle evehicle custom1 custom2" speed="33.33" length="8.26" shape="22396.54,10007.62 22395.94,10005.17 22394.78,10003.67 22393.63,10002.16 22393.07,9999.71"/>
        <lane id=":1029344125_0_1" index="1" allow="private emergency authority army vip passenger hov taxi bus coach delivery truck trailer motorcycle evehicle custom1 custom2" speed="33.33" length="8.26" shape="22396.54,10007.62 22396.27,9999.63"/>
        <lane id=":1029344125_0_2" index="2" allow="private emergency authority army vip passenger hov taxi bus coach delivery truck trailer motorcycle evehicle custom1 custom2" speed="33.33" length="8.26" shape="22399.74,10007.48 22399.47,9999.55"/>
    </edge>
    <edge id=":1029614925_0" function="internal">
        <lane id=":1029614925_0_0" index="0" allow="private emergency authority army vip passenger hov taxi bus coach delivery truck trailer motorcycle evehicle custom1 custom2" speed="30.83" length="3.00" shape="13377.02,26374.52 13374.05,26374.93"/>
    </edge>
    <edge id=":1029614925_1" function="internal">
        <lane id=":1029614925_1_0" index="0" allow="private emergency authority army vip passenger hov taxi bus coach delivery truck trailer motorcycle evehicle custom1 custom2" speed="39.44" length="3.00" shape="13376.51,26371.30 13373.55,26371.77"/>
        <lane id=":1029614925_1_1" index="1" allow="private emergency authority army vip passenger hov taxi bus coach delivery truck trailer motorcycle evehicle custom1 custom2" speed="39.44" length="3.00" shape="13376.01,26368.14 13373.04,26368.61"/>
        <lane id=":1029614925_1_2" index="2" allow="private emergency authority army vip passenger hov taxi bus coach delivery truck trailer motorcycle evehicle custom1 custom2" speed="39.44" length="3.00" shape="13375.50,26364.98 13372.54,26365.45"/>
    </edge>
    <edge id=":1029614926_0" function="internal">
        <lane id=":1029614926_0_0" index="0" allow="private emergency authority army vip passenger hov taxi bus coach delivery truck trailer motorcycle evehicle custom1 custom2" speed="30.83" length="3.15" shape="13735.71,26352.17 13734.78,26352.03 13734.15,26351.95 13733.51,26351.90 13732.57,26351.84"/>
    </edge>
    <edge id=":1029614926_1" function="internal">
        <lane id=":1029614926_1_0" index="0" allow="private emergency authority army vip passenger hov taxi bus coach delivery truck trailer motorcycle evehicle custom1 custom2" speed="39.44" length="3.23" shape="13735.97,26348.83 13732.75,26348.65"/>
        <lane id=":1029614926_1_1" index="1" allow="private emergency authority army vip passenger hov taxi bus coach delivery truck trailer motorcycle evehicle custom1 custom2" speed="39.44" length="3.23" shape="13736.14,26345.63 13732.92,26345.45"/>
        <lane id=":1029614926_1_2" index="2" allow="private emergency authority army vip passenger hov taxi bus coach delivery truck trailer motorcycle evehicle custom1 custom2" speed="39.44" length="3.23" shape="13736.32,26342.44 13733.09,26342.26"/>
    </edge>
    <edge id=":1029615040_0" function="internal">
        <lane id=":1029615040_0_0" index="0" allow="private emergency authority army vip passenger hov taxi bus coach delivery truck trailer motorcycle evehicle custom1 custom2" speed="30.83" length="3.10" shape="14052.52,26375.79 14055.49,26376.69"/>
    </edge>
    <edge id=":1029615040_1" function="internal">
        <lane id=":1029615040_1_0" index="0" allow="private emergency authority army vip passenger hov taxi bus coach delivery truck trailer motorcycle evehicle custom1 custom2" speed="39.44" length="2.97" shape="14051.67,26378.94 14054.59,26379.76"/>
        <lane id=":1029615040_1_1" index="1" allow="private emergency authority army vip passenger hov taxi bus coach delivery truck trailer motorcycle evehicle custom1 custom2" speed="39.44" length="2.97" shape="14050.83,26382.03 14053.68,26382.83"/>
        <lane id=":1029615040_1_2" index="2" allow="private emergency authority army vip passenger hov taxi bus coach delivery truck trailer motorcycle evehicle custom1 custom2" speed="39.44" length="2.97" shape="14049.99,26385.12 14052.78,26385.90"/>
    </edge>
    <edge id=":1029615236_0" function="internal">
        <lane id=":1029615236_0_0" index="0" allow="private emergency authority army vip passenger hov taxi bus coach delivery truck trailer motorcycle evehicle custom1 custom2" speed="39.44" length="3.08" shape="13668.94,26321.97 13672.01,26322.12"/>
    </edge>
    <edge id=":1029615236_1" function="internal">
        <lane id=":1029615236_1_0" index="0" allow="private emergency authority army vip passenger hov taxi bus coach delivery truck trailer motorcycle evehicle custom1 custom2" speed="39.44" length="3.11" shape="13668.74,26325.28 13671.93,26325.32"/>
        <lane id=":1029615236_1_1" index="1" allow="private emergency authority army vip passenger hov taxi bus coach delivery truck trailer motorcycle evehicle custom1 custom2" speed="39.44" length="3.11" shape="13668.74,26328.48 13671.85,26328.52"/>
        <lane id=":1029615236_1_2" index="2" allow="private emergency authority army vip passenger hov taxi bus coach delivery truck trailer motorcycle evehicle custom1 custom2" speed="39.44" length="3.11" shape="13668.74,26331.68 13671.77,26331.72"/>
    </edge>
    <edge id=":1029615259_0" function="internal">
        <lane id=":1029615259_0_0" index="0" allow="private emergency authority army vip passenger hov taxi bus coach delivery truck trailer motorcycle evehicle custom1 custom2" speed="25.27" length="2.54" shape="13948.52,26379.43 13946.02,26379.00"/>
    </edge>
    <edge id=":1029615259_1" function="internal">
        <lane id=":1029615259_1_0" index="0" allow="private emergency authority army vip passenger hov taxi bus coach delivery truck trailer motorcycle evehicle custom1 custom2" speed="39.44" length="2.97" shape="13949.17,26376.30 13946.47,26375.76"/>
        <lane id=":1029615259_1_1" index="1" allow="private emergency authority army vip passenger hov taxi bus coach delivery truck trailer motorcycle evehicle custom1 custom2" speed="39.44" length="2.97" shape="13949.83,26373.17 13946.92,26372.59"/>
        <lane id=":1029615259_1_2" index="2" allow="private emergency authority army vip passenger hov taxi bus coach delivery truck trailer motorcycle evehicle custom1 custom2" speed="39.44" length="2.97" shape="13950.48,26370.04 13947.37,26369.42"/>
    </edge>
    <edge id=":1029615343_0" function="internal">
        <lane id=":1029615343_0_0" index="0" allow="private emergency authority army vip passenger hov taxi bus coach delivery truck trailer motorcycle evehicle custom1 custom2" speed="11.11" length="7.47" shape="13876.61,26375.21 13874.58,26375.89 13873.34,26376.76 13872.13,26377.71 13870.16,26378.64"/>
        <lane id=":1029615343_0_1" index="1" allow="private emergency authority army vip passenger hov taxi bus coach delivery truck trailer motorcycle evehicle custom1 custom2" speed="11.11" length="7.47" shape="13876.61,26375.21 13874.39,26375.42 13872.82,26375.24 13871.28,26375.14 13869.13,26375.61"/>
    </edge>
    <edge id=":1044876903_0" function="internal">
        <lane id=":1044876903_0_0" index="0" allow="private emergency authority army vip passenger hov taxi bus coach delivery truck trailer motorcycle evehicle custom1 custom2" speed="39.44" length="8.20" shape="20207.11,28583.85 20209.54,28583.96 20211.22,28583.66 20212.89,28583.37 20215.31,28583.52"/>
        <lane id=":1044876903_0_1" index="1" allow="private emergency authority army vip passenger hov taxi bus coach delivery truck trailer motorcycle evehicle custom1 custom2" speed="39.44" length="8.20" shape="20207.11,28583.85 20209.45,28584.45 20210.95,28585.24 20212.46,28586.04 20214.79,28586.68"/>
        <lane id=":1044876903_0_2" index="2" allow="private emergency authority army vip passenger hov taxi bus coach delivery truck trailer motorcycle evehicle custom1 custom2" speed="39.44" length="8.20" shape="20206.64,28587.02 20208.96,28587.61 20210.46,28588.40 20211.95,28589.20 20214.27,28589.83"/>
        <lane id=":1044876903_0_3" index="3" allow="private emergency authority army vip passenger hov taxi bus coach delivery truck trailer motorcycle evehicle custom1 custom2" speed="39.44" length="8.20" shape="20206.17,28590.18 20208.48,28590.78 20209.96,28591.56 20211.44,28592.35 20213.74,28592.99"/>
    </edge>
    <edge id=":1045289217_0" function="internal">
        <lane id=":1045289217_0_0" index="0" allow="private emergency authority army vip passenger hov taxi bus coach delivery truck trailer motorcycle evehicle custom1 custom2" speed="36.38" length="0.10" shape="27634.07,6803.06 27634.00,6803.00"/>
        <lane id=":1045289217_0_1" index="1" allow="private emergency authority army vip passenger hov taxi bus coach delivery truck trailer motorcycle evehicle custom1 custom2" speed="36.38" length="0.10" shape="27631.95,6805.46 27632.02,6805.52"/>
    </edge>
    <edge id=":104738806_0" function="internal">
        <lane id=":104738806_0_0" index="0" allow="private emergency authority army vip passenger hov taxi bus coach delivery truck trailer motorcycle evehicle custom1 custom2" speed="30.83" length="3.01" shape="8401.56,24458.26 8403.80,24456.26"/>
    </edge>
    <edge id=":104738806_1" function="internal">
        <lane id=":104738806_1_0" index="0" allow="private emergency authority army vip passenger hov taxi bus coach delivery truck trailer motorcycle evehicle custom1 custom2" speed="39.44" length="3.00" shape="8403.77,24460.65 8405.97,24458.61"/>
        <lane id=":104738806_1_1" index="1" allow="private emergency authority army vip passenger hov taxi bus coach delivery truck trailer motorcycle evehicle custom1 custom2" speed="39.44" length="3.00" shape="8405.94,24463.00 8408.14,24460.96"/>
    </edge>
    <edge id=":1059673147_0" function="internal">
        <lane id=":1059673147_0_0" index="0" allow="private emergency authority army vip passenger hov taxi bus coach delivery truck trailer motorcycle evehicle custom1 custom2" speed="30.83" length="15.97" shape="23794.09,28367.73 23779.25,28373.25"/>
        <lane id=":1059673147_0_1" index="1" allow="private emergency authority army vip passenger hov taxi bus coach delivery truck trailer motorcycle evehicle custom1 custom2" speed="30.83" length="15.97" shape="23793.00,28364.72 23777.90,28370.34"/>
    </edge>
    <edge id=":1059673147_2" function="internal">
        <lane id=":1059673147_2_0" index="0" allow="private emergency authority army vip passenger hov taxi bus coach delivery truck trailer motorcycle evehicle custom1 custom2" speed="39.44" length="16.08" shape="23791.65,28361.62 23787.28,28363.60 23784.15,28364.63 23781.00,28365.61 23776.56,28367.44"/>
        <lane id=":1059673147_2_1" index="1" allow="private emergency authority army vip passenger hov taxi bus coach delivery truck trailer motorcycle evehicle custom1 custom2" speed="39.44" length="16.08" shape="23790.20,28358.77 23785.86,28360.73 23782.76,28361.75 23779.62,28362.72 23775.21,28364.53"/>
        <lane id=":1059673147_2_2" index="2" allow="private emergency authority army vip passenger hov taxi bus coach delivery truck trailer motorcycle evehicle custom1 custom2" speed="39.44" length="16.08" shape="23788.75,28355.91 23784.44,28357.86 23781.36,28358.87 23778.24,28359.83 23773.87,28361.63"/>
    </edge>
    <edge id=":1059673172_0" function="internal">
        <lane id=":1059673172_0_0" index="0" allow="private emergency authority army vip passenger hov taxi bus coach delivery truck trailer motorcycle evehicle custom1 custom2" speed="39.44" length="8.18" shape="23461.23,28507.68 23458.89,28508.32 23457.19,28508.39 23455.48,28508.44 23453.13,28509.05"/>
        <lane id=":1059673172_0_1" index="1" allow="private emergency authority army vip passenger hov taxi bus coach delivery truck trailer motorcycle evehicle custom1 custom2" speed="39.44" length="8.18" shape="23460.07,28504.70 23457.74,28505.34 23456.05,28505.40 23454.36,28505.45 23452.02,28506.05"/>
        <lane id=":1059673172_0_2" index="2" allow="private emergency authority army vip passenger hov taxi bus coach delivery truck trailer motorcycle evehicle custom1 custom2" speed="39.44" length="8.18" shape="23458.90,28501.72 23456.59,28502.35 23454.92,28502.41 23453.23,28502.45 23450.91,28503.04"/>
        <lane id=":1059673172_0_3" index="3" allow="private emergency authority army vip passenger hov taxi bus coach delivery truck trailer motorcycle evehicle custom1 custom2" speed="39.44" length="8.18" shape="23457.73,28498.74 23455.44,28499.36 23453.78,28499.42 23452.10,28499.46 23449.80,28500.04"/>
    </edge>
    <edge id=":1059694866_0" function="internal">
        <lane id=":1059694866_0_0" index="0" allow="private emergency authority army vip passenger hov taxi bus coach delivery truck trailer motorcycle evehicle custom1 custom2" speed="30.83" length="3.30" shape="24231.06,27714.69 24230.87,27713.77 24230.73,27713.15 24230.56,27712.53 24230.30,27711.63"/>
        <lane id=":1059694866_0_1" index="1" allow="private emergency authority army vip passenger hov taxi bus coach delivery truck trailer motorcycle evehicle custom1 custom2" speed="30.83" length="3.30" shape="24234.20,27714.06 24233.99,27713.05 24233.84,27712.37 24233.65,27711.69 24233.36,27710.71"/>
    </edge>
    <edge id=":1059694866_2" function="internal">
        <lane id=":1059694866_2_0" index="0" allow="private emergency authority army vip passenger hov taxi bus coach delivery truck trailer motorcycle evehicle custom1 custom2" speed="39.44" length="3.29" shape="24237.36,27712.92 24236.43,27709.79"/>
        <lane id=":1059694866_2_1" index="1" allow="private emergency authority army vip passenger hov taxi bus coach delivery truck trailer motorcycle evehicle custom1 custom2" speed="39.44" length="3.29" shape="24240.43,27712.02 24239.49,27708.87"/>
        <lane id=":1059694866_2_2" index="2" allow="private emergency authority army vip passenger hov taxi bus coach delivery truck trailer motorcycle evehicle custom1 custom2" speed="39.44" length="3.29" shape="24243.50,27711.12 24242.56,27707.95"/>
    </edge>
    <edge id=":1059694872_0" function="internal">
        <lane id=":1059694872_0_0" index="0" allow="private emergency authority army vip passenger hov taxi bus coach delivery truck trailer motorcycle evehicle custom1 custom2" speed="30.83" length="2.95" shape="24331.55,27938.38 24332.31,27941.23"/>
    </edge>
    <edge id=":1059694872_1" function="internal">
        <lane id=":1059694872_1_0" index="0" allow="private emergency authority army vip passenger hov taxi bus coach delivery truck trailer motorcycle evehicle custom1 custom2" speed="39.44" length="3.00" shape="24328.41,27939.28 24329.25,27942.14"/>
        <lane id=":1059694872_1_1" index="1" allow="private emergency authority army vip passenger hov taxi bus coach delivery truck trailer motorcycle evehicle custom1 custom2" speed="39.44" length="3.00" shape="24325.34,27940.17 24326.18,27943.05"/>
        <lane id=":1059694872_1_2" index="2" allow="private emergency authority army vip passenger hov taxi bus coach delivery truck trailer motorcycle evehicle custom1 custom2" speed="39.44" length="3.00" shape="24322.26,27941.06 24323.11,27943.97"/>
    </edge>
    <edge id=":1059826936_0" function="internal">
        <lane id=":1059826936_0_0" index="0" allow="private emergency authority army vip passenger hov taxi bus coach delivery truck trailer motorcycle evehicle custom1 custom2" speed="30.83" length="3.19" shape="24451.72,28444.69 24451.44,28443.79 24451.23,28443.17 24450.99,28442.57 24450.62,28441.70"/>
    </edge>
    <edge id=":1059826936_1" function="internal">
        <lane id=":1059826936_1_0" index="0" allow="private emergency authority army vip passenger hov taxi bus coach delivery truck trailer motorcycle evehicle custom1 custom2" speed="39.44" length="3.18" shape="24454.78,28443.77 24453.87,28440.76"/>
        <lane id=":1059826936_1_1" index="1" allow="private emergency authority army vip passenger hov taxi bus coach delivery truck trailer motorcycle evehicle custom1 custom2" speed="39.44" length="3.18" shape="24457.84,28442.85 24456.92,28439.81"/>
        <lane id=":1059826936_1_2" index="2" allow="private emergency authority army vip passenger hov taxi bus coach delivery truck trailer motorcycle evehicle custom1 custom2" speed="39.44" length="3.18" shape="24460.91,28441.93 24459.98,28438.86"/>
    </edge>
    <edge id=":106370593_0" function="internal">
        <lane id=":106370593_0_0" index="0" allow="private emergency authority army vip passenger hov taxi bus coach delivery truck trailer motorcycle evehicle custom1 custom2" speed="26.66" length="3.18" shape="8195.74,24686.10 8195.05,24686.75 8194.59,24687.21 8194.16,24687.69 8193.55,24688.40"/>
    </edge>
    <edge id=":106370593_1" function="internal">
        <lane id=":106370593_1_0" index="0" allow="private emergency authority army vip passenger hov taxi bus coach delivery truck trailer motorcycle evehicle custom1 custom2" speed="39.44" length="3.16" shape="8193.56,24683.77 8191.26,24685.92"/>
        <lane id=":106370593_1_1" index="1" allow="private emergency authority army vip passenger hov taxi bus coach delivery truck trailer motorcycle evehicle custom1 custom2" speed="39.44" length="3.16" shape="8191.37,24681.43 8189.06,24683.59"/>
    </edge>
    <edge id=":106370656_0" function="internal">
        <lane id=":106370656_0_0" index="0" allow="private emergency authority army vip passenger hov taxi bus coach delivery truck trailer motorcycle evehicle custom1 custom2" speed="30.83" length="3.06" shape="8112.24,24765.05 8109.96,24767.08"/>
    </edge>
    <edge id=":106370656_1" function="internal">
        <lane id=":106370656_1_0" index="0" allow="private emergency authority army vip passenger hov taxi bus coach delivery truck trailer motorcycle evehicle custom1 custom2" speed="39.44" length="2.98" shape="8110.00,24762.67 8107.80,24764.72"/>
        <lane id=":106370656_1_1" index="1" allow="private emergency authority army vip passenger hov taxi bus coach delivery truck trailer motorcycle evehicle custom1 custom2" speed="39.44" length="2.98" shape="8107.80,24760.34 8105.64,24762.35"/>
    </edge>
    <edge id=":1099465448_0" function="internal">
        <lane id=":1099465448_0_0" index="0" allow="private emergency authority army vip passenger hov taxi bus coach delivery truck trailer motorcycle evehicle custom1 custom2" speed="16.67" length="11.60" shape="11089.61,17179.50 11086.58,17180.19 11084.23,17180.69 11081.77,17181.33 11078.41,17182.47"/>
    </edge>
    <edge id=":1099465448_1" function="internal">
        <lane id=":1099465448_1_0" index="0" allow="private emergency authority army vip passenger hov taxi bus coach delivery truck trailer motorcycle evehicle custom1 custom2" speed="16.67" length="11.73" shape="11088.56,17176.27 11085.62,17177.27 11083.25,17177.81 11080.72,17178.38 11077.30,17179.47"/>
    </edge>
    <edge id=":1099465454_0" function="internal">
        <lane id=":1099465454_0_0" index="0" allow="private emergency authority army vip passenger hov taxi bus coach delivery truck trailer motorcycle evehicle custom1 custom2" speed="22.22" length="7.91" shape="12250.25,16815.02 12258.15,16814.69"/>
    </edge>
    <edge id=":1099465477_0" function="internal">
        <lane id=":1099465477_0_0" index="0" allow="private emergency authority army vip passenger hov taxi bus coach delivery truck trailer motorcycle evehicle custom1 custom2" speed="22.22" length="2.55" shape="12430.14,16842.73 12427.71,16842.93"/>
        <lane id=":1099465477_0_1" index="1" allow="private emergency authority army vip passenger hov taxi bus coach delivery truck trailer motorcycle evehicle custom1 custom2" speed="22.22" length="2.55" shape="12430.00,16839.54 12427.35,16839.75"/>
    </edge>
    <edge id=":1099465477_2" function="internal">
        <lane id=":1099465477_2_0" index="0" allow="private emergency authority army vip passenger hov taxi bus coach delivery truck trailer motorcycle evehicle custom1 custom2" speed="22.22" length="3.49" shape="12429.85,16836.34 12427.16,16838.10"/>
        <lane id=":1099465477_2_1" index="1" allow="private emergency authority army vip passenger hov taxi bus coach delivery truck trailer motorcycle evehicle custom1 custom2" speed="22.22" length="3.49" shape="12429.71,16833.14 12428.77,16833.44 12428.25,16834.02 12427.73,16834.61 12426.80,16834.92"/>
        <lane id=":1099465477_2_2" index="2" allow="private emergency authority army vip passenger hov taxi bus coach delivery truck trailer motorcycle evehicle custom1 custom2" speed="22.22" length="3.49" shape="12429.56,16829.95 12428.57,16830.25 12428.00,16830.83 12427.43,16831.42 12426.43,16831.74"/>
    </edge>
    <edge id=":1099538478_0" function="internal">
        <lane id=":1099538478_0_0" index="0" allow="private emergency authority army vip passenger hov taxi bus coach delivery truck trailer motorcycle evehicle custom1 custom2" speed="27.78" length="3.23" shape="7766.00,16584.56 7767.57,16587.39"/>
        <lane id=":1099538478_0_1" index="1" allow="private emergency authority army vip passenger hov taxi bus coach delivery truck trailer motorcycle evehicle custom1 custom2" speed="27.78" length="3.23" shape="7763.20,16586.11 7764.77,16588.93"/>
    </edge>
    <edge id=":1099538478_2" function="internal">
        <lane id=":1099538478_2_0" index="0" allow="private emergency authority army vip passenger hov taxi bus coach delivery truck trailer motorcycle evehicle custom1 custom2" speed="27.78" length="3.23" shape="7760.40,16587.66 7761.92,16590.64"/>
        <lane id=":1099538478_2_1" index="1" allow="private emergency authority army vip passenger hov taxi bus coach delivery truck trailer motorcycle evehicle custom1 custom2" speed="27.78" length="3.23" shape="7757.61,16589.21 7759.01,16591.98"/>
    </edge>
    <edge id=":1099538516_0" function="internal">
        <lane id=":1099538516_0_0" index="0" allow="private emergency authority army vip passenger hov taxi bus coach delivery truck trailer motorcycle evehicle custom1 custom2" speed="27.78" length="8.49" shape="7463.78,16219.18 7466.32,16220.11 7468.49,16219.68 7470.64,16219.27 7473.10,16220.30"/>
        <lane id=":1099538516_0_1" index="1" allow="private emergency authority army vip passenger hov taxi bus coach delivery truck trailer motorcycle evehicle custom1 custom2" speed="27.78" length="8.49" shape="7463.78,16219.18 7465.86,16220.40 7467.48,16220.93 7469.07,16221.48 7471.09,16222.79"/>
        <lane id=":1099538516_0_2" index="2" allow="private emergency authority army vip passenger hov taxi bus coach delivery truck trailer motorcycle evehicle custom1 custom2" speed="27.78" length="8.49" shape="7461.89,16221.77 7463.94,16222.96 7465.53,16223.47 7467.10,16224.00 7469.09,16225.28"/>
        <lane id=":1099538516_0_3" index="3" allow="private emergency authority army vip passenger hov taxi bus coach delivery truck trailer motorcycle evehicle custom1 custom2" speed="27.78" length="8.49" shape="7460.00,16224.35 7462.01,16225.52 7463.58,16226.01 7465.13,16226.52 7467.08,16227.77"/>
    </edge>
    <edge id=":1099538529_0" function="internal">
        <lane id=":1099538529_0_0" index="0" allow="private emergency authority army vip passenger hov taxi bus coach delivery truck trailer motorcycle evehicle custom1 custom2" speed="27.78" length="3.24" shape="8263.26,17216.20 8260.36,17214.58"/>
        <lane id=":1099538529_0_1" index="1" allow="private emergency authority army vip passenger hov taxi bus coach delivery truck trailer motorcycle evehicle custom1 custom2" speed="27.78" length="3.24" shape="8264.75,17213.37 8262.00,17211.83"/>
    </edge>
    <edge id=":1099538529_2" function="internal">