<tazs>
    <taz id="194472688" edges="194472688"/>
    <taz id="210389050" edges="210389050"/>
    <taz id="210386343" edges="210386343"/>
    <taz id="35158447" edges="35158447"/>
    <taz id="35158449" edges="35158449"/>
    <taz id="361382424" edges="361382424"/>
    <taz id="397145882" edges="397145882"/>
    <taz id="19798104" edges="19798104"/>
    <taz id="194605224" edges="194605224"/>
    <taz id="3996472.111" edges="3996472.111"/>
    <taz id="17552771" edges="17552771"/>
    <taz id="17551649.66" edges="17551649.66"/>
    <taz id="401794355" edges="401794355"/>
    <taz id="153080102" edges="153080102"/>
    <taz id="4343910" edges="4343910"/>
    <taz id="4496344" edges="4496344"/>
    <taz id="146238101.32" edges="146238101.32"/>
    <taz id="4496345.43" edges="4496345.43"/>
    <taz id="145307249" edges="145307249"/>
    <taz id="490191872" edges="490191872"/>
    <taz id="504568280#0" edges="504568280#0"/>
    <taz id="144574006" edges="144574006"/>
    <taz id="34955362" edges="34955362"/>
    <taz id="144554280" edges="144554280"/>
    <taz id="22958443" edges="22958443"/>
    <taz id="24034429.48" edges="24034429.48"/>
    <taz id="290153186" edges="290153186"/>
    <taz id="290420128" edges="290420128"/>
    <taz id="29265204" edges="29265204"/>
    <taz id="298806246" edges="298806246"/>
    <taz id="301110094" edges="301110094"/>
    <taz id="28764145.22" edges="28764145.22"/>
    <taz id="316403776" edges="316403776"/>
    <taz id="27456392" edges="27456392"/>
    <taz id="26653902.22" edges="26653902.22"/>
    <taz id="26653463" edges="26653463"/>
    <taz id="325030860" edges="325030860"/>
    <taz id="325882161" edges="325882161"/>
    <taz id="256297919" edges="256297919"/>
    <taz id="253354841.30" edges="253354841.30"/>
    <taz id="326360861" edges="326360861"/>
    <taz id="326367892" edges="326367892"/>
    <taz id="326391246" edges="326391246"/>
    <taz id="326391248" edges="326391248"/>
    <taz id="246627701" edges="246627701"/>
    <taz id="326418273.59" edges="326418273.59"/>
    <taz id="2413203#0" edges="2413203#0"/>
    <taz id="233223712" edges="233223712"/>
    <taz id="55943637.16" edges="55943637.16"/>
    <taz id="290258255" edges="290258255"/>
    <taz id="128901040" edges="128901040"/>
    <taz id="141620509" edges="141620509"/>
    <taz id="8132542#1" edges="8132542#1"/>
    <taz id="108490429" edges="108490429"/>
    <taz id="143476007" edges="143476007"/>
    <taz id="128901043" edges="128901043"/>
    <taz id="78343531.73" edges="78343531.73"/>
    <taz id="141620517#1.51" edges="141620517#1.51"/>
    <taz id="128901037" edges="128901037"/>
    <taz id="88687686" edges="88687686"/>
    <taz id="88688748" edges="88688748"/>
    <taz id="100871370#1" edges="100871370#1"/>
    <taz id="78343533.45" edges="78343533.45"/>
    <taz id="194606312" edges="194606312"/>
    <taz id="3987994" edges="3987994"/>
    <taz id="3995738" edges="3995738"/>
    <taz id="325882159" edges="325882159"/>
    <taz id="13589671" edges="13589671"/>
    <taz id="4004668" edges="4004668"/>
    <taz id="3997140" edges="3997140"/>
    <taz id="290153188" edges="290153188"/>
    <taz id="4005946" edges="4005946"/>
    <taz id="17552788" edges="17552788"/>
    <taz id="326372759" edges="326372759"/>
    <taz id="31911252" edges="31911252"/>
    <taz id="256320645" edges="256320645"/>
    <taz id="931112709" edges="931112709"/>
    <taz id="256297916" edges="256297916"/>
    <taz id="326348925" edges="326348925"/>
    <taz id="375194824" edges="375194824"/>
    <taz id="326381217" edges="326381217"/>
    <taz id="11855790" edges="11855790"/>
    <taz id="326367891" edges="326367891"/>
    <taz id="128901038" edges="128901038"/>
    <taz id="128901042" edges="128901042"/>
    <taz id="228709306" edges="228709306"/>
    <taz id="930774572" edges="930774572"/>
    <taz id="128901055" edges="128901055"/>
    <taz id="217356700" edges="217356700"/>
    <taz id="34955368" edges="34955368"/>
    <taz id="11285555" edges="11285555"/>
    <taz id="34955369" edges="34955369"/>
    <taz id="35158446" edges="35158446"/>
    <taz id="58149342" edges="58149342"/>
    <taz id="35158448" edges="35158448"/>
    <taz id="4005964" edges="4005964"/>
    <taz id="365480197" edges="365480197"/>
    <taz id="325882162" edges="325882162"/>
    <taz id="25632153" edges="25632153"/>
    <taz id="141620518" edges="141620518"/>
    <taz id="146072518" edges="146072518"/>
    <taz id="143750308" edges="143750308"/>
    <taz id="317414933" edges="317414933"/>
    <taz id="143474812" edges="143474812"/>
    <taz id="5212654" edges="5212654"/>
    <taz id="164407575" edges="164407575"/>
    <taz id="146072519" edges="146072519"/>
    <taz id="5212663" edges="5212663"/>
    <taz id="149392147" edges="149392147"/>
    <taz id="46737892" edges="46737892"/>
    <taz id="149795919" edges="149795919"/>
    <taz id="8132541" edges="8132541"/>
    <taz id="27510276" edges="27510276"/>
    <taz id="144655314" edges="144655314"/>
    <taz id="4241833" edges="4241833"/>
    <taz id="546312753" edges="546312753"/>
    <taz id="144117526" edges="144117526"/>
    <taz id="5058084" edges="5058084"/>
    <taz id="64942250" edges="64942250"/>
    <taz id="4059029" edges="4059029"/>
    <taz id="4059027" edges="4059027"/>
    <taz id="144557361" edges="144557361"/>
</tazs>
